geometry optimzed in LAMMPS
_audit_creation_date              2020-11-30 
_audit_creation_method            'lammps2cif' 
_symmetry_space_group_name_H-M    'P1' 
_symmetry_Int_Tables_number       1 
_symmetry_cell_setting            triclinic 
loop_ 
_symmetry_equiv_pos_as_xyz 
  x,y,z 
_cell_length_a                    55.68459278 
_cell_length_b                    55.772340607131625 
_cell_length_c                    55.83619285595685 
_cell_angle_alpha                 90.25638096409989 
_cell_angle_beta                  89.86932721356885 
_cell_angle_gamma                 90.34233822223932 
loop_ 
_atom_site_label 
_atom_site_type_symbol 
_atom_site_fract_x 
_atom_site_fract_y 
_atom_site_fract_z 
_atom_site_charge 
C1          C  0.13051855  0.74156584  0.41094512     0.85700
C2          C  0.13071154  0.72484781  0.38892816    -0.54500
C3          C  0.13082818  0.73619138  0.36722140     0.08700
C4          C  0.13073296  0.76384936  0.36944947     0.19600
C5          C  0.15270443  0.75782800  0.40644758    -0.55200
C6          C  0.15283109  0.76996065  0.38507849     0.08800
C7          C  0.10928308  0.75828592  0.40709869    -0.54800
C8          C  0.10895746  0.76992616  0.38569821     0.09300
H9          H  0.13085315  0.70545112  0.39042233     0.13900
H10         H  0.13068320  0.77281279  0.35180319    -0.00400
H11         H  0.16778751  0.75935927  0.41831219     0.14200
H12         H  0.09565146  0.76122728  0.42074156     0.13900
C13         C  0.72480224  0.13027108  0.68940685     0.85700
C14         C  0.71023211  0.13119247  0.66604732    -0.54500
C15         C  0.72307764  0.12860156  0.64549566     0.08700
C16         C  0.75023762  0.12544226  0.64995835     0.19600
C17         C  0.73787549  0.10614936  0.68713275    -0.55200
C18         C  0.75170687  0.10372349  0.66703719     0.08800
C19         C  0.74459586  0.14936190  0.68632297    -0.54800
C20         C  0.75784362  0.14731676  0.66555903     0.09300
H21         H  0.69078616  0.13233643  0.66554700     0.13900
H22         H  0.76069212  0.12325961  0.63318414    -0.00400
H23         H  0.73650978  0.09196000  0.70034394     0.14200
H24         H  0.74766924  0.16350169  0.69939837     0.13900
C25         C  0.32272438  0.12097828  0.74369724     0.85700
C26         C  0.32283974  0.10084280  0.76250790    -0.54500
C27         C  0.34136322  0.10161115  0.77886551     0.08700
C28         C  0.35730318  0.12435393  0.77536748     0.19600
C29         C  0.32220449  0.14412804  0.75844561    -0.55200
C30         C  0.33930131  0.14570892  0.77569809     0.08800
C31         C  0.34834820  0.12156479  0.73296933    -0.54800
C32         C  0.36652391  0.12286255  0.74930250     0.09300
H33         H  0.30855329  0.08758899  0.76312971     0.13900
H34         H  0.37262168  0.12624785  0.78763489    -0.00400
H35         H  0.30929923  0.15833874  0.75583997     0.14200
H36         H  0.35201555  0.12144580  0.71385873     0.13900
C37         C  0.15926594  0.62095280  0.78936319     0.85700
C38         C  0.15864980  0.59819054  0.77332788    -0.54500
C39         C  0.13986278  0.59711009  0.75728386     0.08700
C40         C  0.12266616  0.61886991  0.75967595     0.19600
C41         C  0.15797190  0.64197181  0.77185354    -0.55200
C42         C  0.13901469  0.64142048  0.75635179     0.08800
C43         C  0.13464235  0.61969523  0.80152075    -0.54800
C44         C  0.11537620  0.61875903  0.78659563     0.09300
H45         H  0.17155932  0.58380900  0.77479382     0.13900
H46         H  0.10723172  0.61825256  0.74715810    -0.00400
H47         H  0.17126506  0.65629511  0.77174383     0.14200
H48         H  0.13254565  0.61840487  0.82079538     0.13900
C49         C  0.64235649  0.76753548  0.21049346     0.85700
C50         C  0.62181900  0.74879321  0.21097941    -0.54500
C51         C  0.62060252  0.73359003  0.19151131     0.08700
C52         C  0.64221533  0.73758782  0.17434315     0.19600
C53         C  0.66503006  0.75271325  0.20883097    -0.55200
C54         C  0.66518047  0.73684060  0.19034405     0.08800
C55         C  0.63918828  0.77921182  0.18565282    -0.54800
C56         C  0.63969610  0.76382345  0.16668778     0.09300
H57         H  0.60864929  0.74828192  0.22520072     0.13900
H58         H  0.64279873  0.72588757  0.15851700    -0.00400
H59         H  0.67952219  0.75402418  0.22181151     0.14200
H60         H  0.63589291  0.79816212  0.18315869     0.13900
C61         C  0.73233508  0.38381951  0.15347280     0.85700
C62         C  0.74724492  0.38018721  0.17631320    -0.54500
C63         C  0.75913368  0.35884077  0.17748206     0.08700
C64         C  0.75307275  0.34161275  0.15643844     0.19600
C65         C  0.74963086  0.37790837  0.13273690    -0.55200
C66         C  0.76033083  0.35573281  0.13362453     0.08800
C67         C  0.71482601  0.36245337  0.15476415    -0.54800
C68         C  0.72530306  0.34047038  0.15611389     0.09300
H69         H  0.74887568  0.39329741  0.19055386     0.13900
H70         H  0.76104001  0.32356429  0.15801141    -0.00400
H71         H  0.75332026  0.39068338  0.11854695     0.14200
H72         H  0.69547252  0.36449578  0.15574129     0.13900
C73         C  0.10017756  0.75102883  0.67236307     0.85700
C74         C  0.10195608  0.73854862  0.64769549    -0.54500
C75         C  0.12258346  0.72592259  0.64413673     0.08700
C76         C  0.14061847  0.72811675  0.66497482     0.19600
C77         C  0.10523675  0.73133785  0.69062596    -0.55200
C78         C  0.12639633  0.71928950  0.68733997     0.08800
C79         C  0.12268469  0.76697601  0.67245788    -0.54800
C80         C  0.14400584  0.75559998  0.66850567     0.09300
H81         H  0.08835577  0.73962218  0.63389797     0.13900
H82         H  0.15741668  0.71834721  0.66121873    -0.00400
H83         H  0.09286700  0.72722003  0.70513027     0.14200
H84         H  0.12174091  0.78622774  0.67464001     0.13900
C85         C  0.72553666  0.13987065  0.40396883     0.85700
C86         C  0.74049466  0.11740020  0.40015549    -0.54500
C87         C  0.75265175  0.11666832  0.37910376     0.08700
C88         C  0.74948732  0.13965315  0.36360015     0.19600
C89         C  0.74480961  0.15998936  0.40173130    -0.55200
C90         C  0.75703120  0.16030828  0.38032066     0.08800
C91         C  0.71004488  0.14179987  0.38147086    -0.54800
C92         C  0.72208474  0.14280732  0.36012500     0.09300
H93         H  0.74179838  0.10319452  0.41335846     0.13900
H94         H  0.75978248  0.14011590  0.34696049    -0.00400
H95         H  0.74999480  0.17193123  0.41618112     0.14200
H96         H  0.69060460  0.14200895  0.38264881     0.13900
C97         C  0.62976913  0.08834302  0.79152706     0.85700
C98         C  0.60752392  0.09308674  0.77659054    -0.54500
C99         C  0.60775311  0.11428566  0.76469926     0.08700
C100        C  0.63088241  0.12956531  0.76943804     0.19600
C101        C  0.65112799  0.09154098  0.77373974    -0.55200
C102        C  0.65174064  0.11319908  0.76196960     0.08800
C103        C  0.63236789  0.11040817  0.80788954    -0.54800
C104        C  0.63416346  0.13225394  0.79703284     0.09300
H105        H  0.59304616  0.08003879  0.77465381     0.13900
H106        H  0.63091064  0.14618199  0.75962147    -0.00400
H107        H  0.66539330  0.07880774  0.77144719     0.14200
H108        H  0.63291711  0.10850058  0.82717608     0.13900
C109        C  0.12458849  0.36564056  0.74282972     0.85700
C110        C  0.10289740  0.36127270  0.75971406    -0.54500
C111        C  0.10304482  0.33988777  0.77203020     0.08700
C112        C  0.12641485  0.32532335  0.76699646     0.19600
C113        C  0.14558550  0.36406779  0.76039250    -0.55200
C114        C  0.14698974  0.34340999  0.77329975     0.08800
C115        C  0.12607407  0.34319316  0.72723098    -0.54800
C116        C  0.12736628  0.32221118  0.73935674     0.09300
H117        H  0.08974077  0.37490551  0.76378274     0.13900
H118        H  0.12747102  0.30781751  0.77610983    -0.00400
H119        H  0.15772269  0.37909435  0.76356541     0.14200
H120        H  0.12607685  0.34386033  0.70779542     0.13900
C121        C  0.38643571  0.74035489  0.18095132     0.85700
C122        C  0.38602014  0.75394880  0.15689744    -0.54500
C123        C  0.36491000  0.76520441  0.15199009     0.08700
C124        C  0.34521455  0.76058406  0.17103916     0.19600
C125        C  0.37815719  0.75860654  0.19971178    -0.55200
C126        C  0.35646121  0.76913508  0.19516991     0.08800
C127        C  0.36527434  0.72276353  0.17831270    -0.54800
C128        C  0.34371280  0.73284276  0.17291025     0.09300
H129        H  0.40072616  0.75428825  0.14419805     0.13900
H130        H  0.32788626  0.76897775  0.16642196    -0.00400
H131        H  0.38866355  0.76271036  0.21559531     0.14200
H132        H  0.36730544  0.70352599  0.18009216     0.13900
C133        C  0.77112374  0.65116000  0.14563392     0.85700
C134        C  0.75569523  0.62819621  0.14347452    -0.54500
C135        C  0.74168538  0.62348000  0.16320379     0.08700
C136        C  0.74483124  0.64225891  0.18359675     0.19600
C137        C  0.75313234  0.67082269  0.15170449    -0.55200
C138        C  0.73933261  0.66669723  0.17159933     0.08800
C139        C  0.78531832  0.64698945  0.16880405    -0.54800
C140        C  0.77200111  0.64278421  0.18864198     0.09300
H141        H  0.75561454  0.61679689  0.12762799     0.13900
H142        H  0.73431152  0.63832031  0.19995925    -0.00400
H143        H  0.75119839  0.68667491  0.14065022     0.14200
H144        H  0.80461099  0.64575722  0.16968932     0.13900
C145        C  0.38702153  0.71266897  0.91158618     0.85700
C146        C  0.36541462  0.69573746  0.90968083    -0.54500
C147        C  0.34361439  0.70653193  0.90878169     0.08700
C148        C  0.34507957  0.73404549  0.91111794     0.19600
C149        C  0.38390115  0.73142644  0.89156714    -0.55200
C150        C  0.36200218  0.74227995  0.89096136     0.08800
C151        C  0.38177596  0.72845681  0.93397000    -0.54800
C152        C  0.35963529  0.73986572  0.93421793     0.09300
H153        H  0.36738715  0.67644129  0.90799419     0.13900
H154        H  0.32698992  0.74165590  0.90993815    -0.00400
H155        H  0.39863645  0.73812956  0.88076314     0.14200
H156        H  0.39554779  0.73208173  0.94725128     0.13900
C157        C  0.73126568  0.59164232  0.90369214     0.85700
C158        C  0.71533191  0.61415749  0.90591209    -0.54500
C159        C  0.72735758  0.63539252  0.90412334     0.08700
C160        C  0.75464156  0.63238176  0.90201334     0.19600
C161        C  0.74657194  0.59499697  0.88132096    -0.55200
C162        C  0.75781241  0.61667457  0.87893674     0.08800
C163        C  0.74900710  0.59519679  0.92436750    -0.54800
C164        C  0.76152917  0.61636349  0.92378574     0.09300
H165        H  0.69601807  0.61348701  0.90842549     0.13900
H166        H  0.76390772  0.64972129  0.90276691    -0.00400
H167        H  0.74888227  0.58035105  0.86879203     0.14200
H168        H  0.75095294  0.58259816  0.93888314     0.13900
C169        C  0.85415981  0.35961606  0.75381951     0.85700
C170        C  0.83251462  0.35615592  0.77090349    -0.54500
C171        C  0.83191401  0.33493044  0.78345597     0.08700
C172        C  0.85402922  0.31883324  0.77733478     0.19600
C173        C  0.87547942  0.35649381  0.77103349    -0.55200
C174        C  0.87587283  0.33518746  0.78315323     0.08800
C175        C  0.85465624  0.33736846  0.73797238    -0.54800
C176        C  0.85478988  0.31611241  0.74966385     0.09300
H177        H  0.81943698  0.37023753  0.77378908     0.13900
H178        H  0.85403025  0.30127933  0.78645992    -0.00400
H179        H  0.88810054  0.37057786  0.77540485     0.14200
H180        H  0.85582535  0.33841163  0.71853605     0.13900
C181        C  0.59716493  0.83522854  0.77015802     0.85700
C182        C  0.61829878  0.83841658  0.75269791    -0.54500
C183        C  0.64013245  0.84073100  0.76335970     0.08700
C184        C  0.63895550  0.84135480  0.79099549     0.19600
C185        C  0.60433878  0.81466223  0.78655348    -0.55200
C186        C  0.62570366  0.81791537  0.79815078     0.08800
C187        C  0.59907785  0.85797300  0.78604530    -0.54800
C188        C  0.62089802  0.86158377  0.79702318     0.09300
H189        H  0.61642256  0.83834654  0.73335789     0.13900
H190        H  0.65694510  0.84366384  0.79910934    -0.00400
H191        H  0.59253197  0.79951067  0.79012581     0.14200
H192        H  0.58446251  0.87045618  0.78823677     0.13900
C193        C  0.72393620  0.85975169  0.43263510     0.85700
C194        C  0.70788913  0.85990257  0.41014421    -0.54500
C195        C  0.71993934  0.86075305  0.38901222     0.08700
C196        C  0.74722659  0.86008838  0.39188847     0.19600
C197        C  0.73933943  0.83730115  0.42808834    -0.55200
C198        C  0.75128563  0.83643420  0.40640118     0.08800
C199        C  0.74160511  0.88067449  0.43000483    -0.54800
C200        C  0.75344754  0.88166050  0.40861505     0.09300
H201        H  0.68842247  0.85850983  0.41074087     0.13900
H202        H  0.75638378  0.86197876  0.37463599    -0.00400
H203        H  0.73990697  0.82297708  0.44082619     0.14200
H204        H  0.74430473  0.89379448  0.44418385     0.13900
C205        C  0.87427261  0.74169341  0.67380495     0.85700
C206        C  0.85147479  0.75629257  0.67830858    -0.54500
C207        C  0.83071205  0.74311891  0.68010764     0.08700
C208        C  0.83490913  0.71576603  0.67673226     0.19600
C209        C  0.87451242  0.72294027  0.69354044    -0.55200
C210        C  0.85425597  0.70934337  0.69540629     0.08800
C211        C  0.86789826  0.72768853  0.65079039    -0.54800
C212        C  0.84782840  0.71364346  0.65238732     0.09300
H213        H  0.85175812  0.77576226  0.67980110     0.13900
H214        H  0.81863851  0.70435236  0.67790328    -0.00400
H215        H  0.88968664  0.72089477  0.70551230     0.14200
H216        H  0.87677469  0.72985098  0.63376677     0.13900
C217        C  0.64117676  0.74924843  0.87677652     0.85700
C218        C  0.66355913  0.73302229  0.87775101    -0.54500
C219        C  0.66370226  0.71695110  0.89620923     0.08700
C220        C  0.64217395  0.71975591  0.91342632     0.19600
C221        C  0.61956492  0.73190274  0.87834666    -0.55200
C222        C  0.61962602  0.71666896  0.89748692     0.08800
C223        C  0.64242122  0.76158592  0.90132666    -0.54800
C224        C  0.64296763  0.74661644  0.92058534     0.09300
H225        H  0.67916143  0.73471121  0.86648161     0.13900
H226        H  0.64267196  0.70724913  0.92878200    -0.00400
H227        H  0.60514553  0.73185493  0.86524859     0.14200
H228        H  0.64376154  0.78092389  0.90330773     0.13900
C229        C  0.72933118  0.31276010  0.88571644     0.85700
C230        C  0.74216175  0.31552267  0.86166207    -0.54500
C231        C  0.76087488  0.33140066  0.86177713     0.08700
C232        C  0.76359152  0.34526807  0.88613938     0.19600
C233        C  0.74984661  0.30776131  0.90353160    -0.55200
C234        C  0.76706097  0.32560165  0.90564688     0.08800
C235        C  0.72136033  0.33820328  0.89260695    -0.54800
C236        C  0.73859732  0.35539957  0.89188840     0.09300
H237        H  0.73800873  0.30438271  0.84617536     0.13900
H238        H  0.77686529  0.35990914  0.88583019    -0.00400
H239        H  0.75011368  0.29147248  0.91403588     0.14200
H240        H  0.70412237  0.34268569  0.89980149     0.13900
C241        C  0.82850640  0.61544995  0.80275781     0.85700
C242        C  0.83034374  0.63666891  0.78575820    -0.54500
C243        C  0.84741524  0.63497180  0.76832619     0.08700
C244        C  0.86262501  0.61189667  0.77065066     0.19600
C245        C  0.82698504  0.59273322  0.78672375    -0.55200
C246        C  0.84438785  0.59107543  0.76953704     0.08800
C247        C  0.85375860  0.61358465  0.81354861    -0.54800
C248        C  0.87182159  0.61243338  0.79687543     0.09300
H249        H  0.81920846  0.65238541  0.78810312     0.13900
H250        H  0.87682601  0.60936768  0.75709120    -0.00400
H251        H  0.81368398  0.57868452  0.78906227     0.14200
H252        H  0.85727521  0.61443837  0.83264253     0.13900
C253        C  0.34725806  0.82128708  0.82277776     0.85700
C254        C  0.32473622  0.81828668  0.80681268    -0.54500
C255        C  0.32329854  0.83391016  0.78826084     0.08700
C256        C  0.34412180  0.85222396  0.78772342     0.19600
C257        C  0.36896258  0.82188883  0.80596462    -0.55200
C258        C  0.36752667  0.83719154  0.78700330     0.08800
C259        C  0.34486114  0.84745862  0.83128887    -0.54800
C260        C  0.34404304  0.86392083  0.81307507     0.09300
H261        H  0.31055590  0.80532977  0.81019539     0.13900
H262        H  0.34190729  0.86486116  0.77271665    -0.00400
H263        H  0.38490059  0.81155613  0.80979776     0.14200
H264        H  0.34429979  0.85281132  0.84996951     0.13900
C265        C  0.75550259  0.81363714  0.68002830     0.85700
C266        C  0.73978015  0.81802195  0.70203265    -0.54500
C267        C  0.72469714  0.83705136  0.70091163     0.08700
C268        C  0.72917502  0.85236386  0.67807645     0.19600
C269        C  0.73837770  0.81484728  0.65809288    -0.55200
C270        C  0.72411946  0.83487389  0.65724211     0.08800
C271        C  0.77019660  0.83661777  0.67731951    -0.54800
C272        C  0.75696717  0.85698945  0.67646346     0.09300
H273        H  0.74018684  0.80612404  0.71735811     0.13900
H274        H  0.71798503  0.86860394  0.67727437    -0.00400
H275        H  0.73846451  0.80215886  0.64339232     0.14200
H276        H  0.78964985  0.83680223  0.67580193     0.13900
O277        O  0.81469134  0.65213492  0.55616495    -0.73700
O278        O  0.81561794  0.60715800  0.49883218    -0.74700
O279        O  0.81176768  0.60147010  0.54970729    -0.63300
O280        O  0.81742788  0.65800819  0.50471896    -0.71700
O281        O  0.85714891  0.65653989  0.50602083    -0.71300
O282        O  0.85141978  0.60007863  0.55190568    -0.62500
O283        O  0.85534133  0.60576126  0.50124346    -0.75000
O284        O  0.85449413  0.65049300  0.55752422    -0.73800
Cu285      Cu  0.81349995  0.62987541  0.52727099     1.04600
Cu286      Cu  0.85595652  0.62824962  0.52925432     1.04300
C287        C  0.83459377  0.65767879  0.56626755     0.92500
C288        C  0.83580519  0.59927455  0.49118224     0.91600
C289        C  0.83074898  0.59186587  0.55804976     0.83800
C290        C  0.83789282  0.66565037  0.49749800     0.90100
O291        O  0.81722196  0.50739068  0.64039649    -0.73700
O292        O  0.82582433  0.45631020  0.69028075    -0.74700
O293        O  0.82369876  0.50700191  0.69139178    -0.63300
O294        O  0.81978472  0.45664728  0.63939036    -0.71700
O295        O  0.85927988  0.45955797  0.63441612    -0.71300
O296        O  0.86340755  0.50782109  0.68761463    -0.62500
O297        O  0.86501555  0.45645996  0.68457114    -0.75000
O298        O  0.85668774  0.51042601  0.63681666    -0.73800
Cu299      Cu  0.82028077  0.48179703  0.66561404     1.04600
Cu300      Cu  0.86248090  0.48371088  0.66077164     1.04300
C301        C  0.83560651  0.51690505  0.63043752     0.92500
C302        C  0.84642065  0.44745952  0.69471085     0.91600
C303        C  0.84422909  0.51515003  0.69775651     0.83800
C304        C  0.83904980  0.45046884  0.62855784     0.90100
O305        O  0.65687579  0.14877936  0.55164792    -0.73700
O306        O  0.60726673  0.14990730  0.49905170    -0.74700
O307        O  0.60637554  0.14719524  0.55045071    -0.63300
O308        O  0.65782848  0.15088214  0.49999074    -0.71700
O309        O  0.65903127  0.11136936  0.49877906    -0.71300
O310        O  0.60792037  0.10754420  0.54869443    -0.62500
O311        O  0.60797273  0.11017102  0.49709163    -0.75000
O312        O  0.65821481  0.10918534  0.54918499    -0.73800
Cu313      Cu  0.63210309  0.15060063  0.52534836     1.04600
Cu314      Cu  0.63329504  0.10823507  0.52332604     1.04300
C315        C  0.66485476  0.12874865  0.55921392     0.92500
C316        C  0.60004355  0.13027621  0.48955324     0.91600
C317        C  0.59951817  0.12665684  0.55803263     0.83800
C318        C  0.66618499  0.13156631  0.49088404     0.90100
O319        O  0.46693543  0.10728281  0.63840099    -0.73700
O320        O  0.51829104  0.10523192  0.68978879    -0.74700
O321        O  0.46699123  0.10523845  0.68966159    -0.63300
O322        O  0.51804762  0.10686085  0.63947811    -0.71700
O323        O  0.51849971  0.14657484  0.64031725    -0.71300
O324        O  0.46627880  0.14459323  0.69142050    -0.62500
O325        O  0.51907990  0.14480060  0.69111692    -0.75000
O326        O  0.46737474  0.14699453  0.63993651    -0.73800
Cu327      Cu  0.49246704  0.10487740  0.66437419     1.04600
Cu328      Cu  0.49274716  0.14716698  0.66593046     1.04300
C329        C  0.45950267  0.12748962  0.63062162     0.92500
C330        C  0.52772885  0.12466392  0.69771850     0.91600
C331        C  0.45788239  0.12429912  0.69832683     0.83800
C332        C  0.52644562  0.12675739  0.63191788     0.90100
O333        O  0.15177052  0.51039545  0.67683157    -0.73700
O334        O  0.15156297  0.46204504  0.62339625    -0.74700
O335        O  0.15269674  0.51300979  0.62599322    -0.63300
O336        O  0.15047644  0.46036911  0.67439872    -0.71700
O337        O  0.11101196  0.46096523  0.67400995    -0.71300
O338        O  0.11284620  0.51375856  0.62538909    -0.62500
O339        O  0.11175384  0.46268588  0.62310766    -0.75000
O340        O  0.11240942  0.51264360  0.67649859    -0.73800
Cu341      Cu  0.15292331  0.48643915  0.65014835     1.04600
Cu342      Cu  0.11056892  0.48753894  0.64976022     1.04300
C343        C  0.13258148  0.51958121  0.68516471     0.92500
C344        C  0.13159784  0.45448635  0.61493583     0.91600
C345        C  0.13310813  0.52170304  0.61806217     0.83800
C346        C  0.13051219  0.45213164  0.68201909     0.90100
O347        O  0.11173450  0.61339981  0.49427230    -0.73700
O348        O  0.11175654  0.65821448  0.55058822    -0.74700
O349        O  0.11066556  0.66443006  0.50022302    -0.63300
O350        O  0.11292774  0.60782166  0.54418204    -0.71700
O351        O  0.15277048  0.60973845  0.54364588    -0.71300
O352        O  0.15016781  0.66573002  0.49835568    -0.62500
O353        O  0.15149488  0.66024024  0.54977232    -0.75000
O354        O  0.15151804  0.61514860  0.49347709    -0.73800
Cu355      Cu  0.11040584  0.63607250  0.52229197     1.04600
Cu356      Cu  0.15287676  0.63790704  0.52124799     1.04300
C357        C  0.13178730  0.60632794  0.48571835     0.92500
C358        C  0.13149070  0.66577272  0.55955789     0.91600
C359        C  0.12982259  0.67377091  0.49167240     0.83800
C360        C  0.13328739  0.59982062  0.55077154     0.90100
O361        O  0.45129683  0.82340848  0.65335772    -0.73700
O362        O  0.50044528  0.81686488  0.70419397    -0.74700
O363        O  0.44963857  0.82071129  0.70356907    -0.63300
O364        O  0.50203206  0.82062862  0.65384944    -0.71700
O365        O  0.50354053  0.86035688  0.65612690    -0.71300
O366        O  0.45472259  0.85959188  0.70870157    -0.62500
O367        O  0.50500018  0.85643182  0.70638378    -0.75000
O368        O  0.45259886  0.86296614  0.65795800    -0.73800
Cu369      Cu  0.47572072  0.81901282  0.67868419     1.04600
Cu370      Cu  0.47897167  0.86124522  0.68237328     1.04300
C371        C  0.44400966  0.84423305  0.64775165     0.92500
C372        C  0.51103894  0.83535040  0.71268070     0.91600
C373        C  0.44411985  0.84014253  0.71443742     0.83800
C374        C  0.51108338  0.84066321  0.64721252     0.90100
O375        O  0.59623850  0.82725169  0.56730672    -0.73700
O376        O  0.64841962  0.83363365  0.51765036    -0.74700
O377        O  0.64746699  0.82726756  0.56776581    -0.63300
O378        O  0.59695059  0.83389952  0.51688759    -0.71700
O379        O  0.59728368  0.87339024  0.52177221    -0.71300
O380        O  0.64609935  0.86630905  0.57450588    -0.62500
O381        O  0.64885201  0.87290725  0.52416302    -0.75000
O382        O  0.59553713  0.86677976  0.57209271    -0.73800
Cu383      Cu  0.62225371  0.82914239  0.54220936     1.04600
Cu384      Cu  0.62200595  0.87122589  0.54825865     1.04300
C385        C  0.58764020  0.84594128  0.57742126     0.92500
C386        C  0.65698578  0.85444507  0.51325085     0.91600
C387        C  0.65454760  0.84568852  0.57951230     0.83800
C388        C  0.58904002  0.85461976  0.51132094     0.90100
O389        O  0.61827188  0.48432874  0.13361310    -0.73700
O390        O  0.66939116  0.53461800  0.14085308    -0.74700
O391        O  0.66856349  0.48332120  0.13442003    -0.63300
O392        O  0.61870058  0.53531728  0.14033850    -0.71700
O393        O  0.61730093  0.52982109  0.17950317    -0.71300
O394        O  0.66851046  0.47938599  0.17394400    -0.62500
O395        O  0.66806481  0.53113867  0.18032675    -0.75000
O396        O  0.61772523  0.47947562  0.17291831    -0.73800
Cu397      Cu  0.64384348  0.50961464  0.13597239     1.04600
Cu398      Cu  0.64300446  0.50480002  0.17805181     1.04300
C399        C  0.61022589  0.47353068  0.15208912     0.92500
C400        C  0.67600318  0.54172298  0.16160951     0.91600
C401        C  0.67565903  0.47251179  0.15324612     0.83800
C402        C  0.60991712  0.54066891  0.16084837     0.90100
O403        O  0.52768229  0.66258991  0.20074281    -0.73700
O404        O  0.47224403  0.61572463  0.19702433    -0.74700
O405        O  0.52346487  0.61259971  0.19485025    -0.63300
O406        O  0.47657648  0.66628341  0.20340515    -0.71700
O407        O  0.47426236  0.67054068  0.16402397    -0.71300
O408        O  0.52318754  0.61879796  0.15571198    -0.62500
O409        O  0.47179297  0.62012515  0.15758144    -0.75000
O410        O  0.52549737  0.66834322  0.16146739    -0.73800
Cu411      Cu  0.49996166  0.63915130  0.20040454     1.04600
Cu412      Cu  0.49853424  0.64460528  0.15834921     1.04300
C413        C  0.53565247  0.67229976  0.18157593     0.92500
C414        C  0.46336562  0.61042828  0.17654068     0.91600
C415        C  0.53161314  0.60798752  0.17395308     0.83800
C416        C  0.46768510  0.67663092  0.18512129     0.90100
O417        O  0.53136517  0.59103016  0.87853822    -0.73700
O418        O  0.47974016  0.64176138  0.88622959    -0.74700
O419        O  0.53113122  0.64207910  0.88288581    -0.63300
O420        O  0.47984278  0.59113244  0.88105707    -0.71700
O421        O  0.48088026  0.58840959  0.92054796    -0.71300
O422        O  0.53400742  0.63791510  0.92228787    -0.62500
O423        O  0.48277349  0.63970048  0.92538355    -0.75000
O424        O  0.53146215  0.58680239  0.91772063    -0.73800
Cu425      Cu  0.50545418  0.61664397  0.88082020     1.04600
Cu426      Cu  0.50736351  0.61312426  0.92283049     1.04300
C427        C  0.53947487  0.58055532  0.89718287     0.92500
C428        C  0.47305377  0.64904260  0.90696972     0.91600
C429        C  0.54087672  0.64777988  0.90279462     0.83800
C430        C  0.47208428  0.58177214  0.90043323     0.90100
O431        O  0.61883077  0.44298061  0.87392394    -0.73700
O432        O  0.66916322  0.49428552  0.87787565    -0.74700
O433        O  0.67000520  0.44334573  0.87719415    -0.63300
O434        O  0.61901901  0.49436969  0.87472864    -0.71700
O435        O  0.61416071  0.49117902  0.91373689    -0.71300
O436        O  0.66945049  0.44550880  0.91663433    -0.62500
O437        O  0.66447833  0.49576902  0.91738292    -0.75000
O438        O  0.61823626  0.44055523  0.91356526    -0.73800
Cu439      Cu  0.64435032  0.46858872  0.87451927     1.04600
Cu440      Cu  0.64151396  0.46807845  0.91669085     1.04300
C441        C  0.61035579  0.43383695  0.89313551     0.92500
C442        C  0.67380780  0.50386981  0.89815334     0.91600
C443        C  0.67852574  0.43696976  0.89741212     0.83800
C444        C  0.60887578  0.50142346  0.89404045     0.90100
C445        C  0.63951006  0.11333002  0.25082937     0.85700
C446        C  0.65990301  0.11984520  0.26785919    -0.54500
C447        C  0.65835937  0.14192549  0.27860428     0.08700
C448        C  0.63530630  0.15557880  0.27112706     0.19600
C449        C  0.61661292  0.11618278  0.26602730    -0.55200
C450        C  0.61457821  0.13790931  0.27734911     0.08800
C451        C  0.63756267  0.13420565  0.23317400    -0.54800
C452        C  0.63575501  0.15624686  0.24343966     0.09300
H453        H  0.67391927  0.10708077  0.27200775     0.13900
H454        H  0.63335387  0.17377244  0.27874640    -0.00400
H455        H  0.60334516  0.10204444  0.26833980     0.14200
H456        H  0.63636689  0.13184757  0.21392874     0.13900
C457        C  0.60597452  0.86525712  0.31177169     0.85700
C458        C  0.61148881  0.88763184  0.29724616    -0.54500
C459        C  0.63324148  0.88821316  0.28565545     0.08700
C460        C  0.64683787  0.86396649  0.28863716     0.19600
C461        C  0.60768036  0.84469945  0.29363953    -0.55200
C462        C  0.62888890  0.84364228  0.28146489     0.08800
C463        C  0.62812374  0.86106759  0.32772284    -0.54800
C464        C  0.64947549  0.86113682  0.31580304     0.09300
H465        H  0.59800188  0.90135689  0.29571035     0.13900
H466        H  0.66408866  0.86208939  0.27927359    -0.00400
H467        H  0.59398040  0.83111635  0.29147352     0.14200
H468        H  0.62715088  0.85854664  0.34698529     0.13900
O469        O  0.61136446  0.00231369  0.86996248    -0.73700
O470        O  0.61310804  0.95240302  0.92102694    -0.74700
O471        O  0.61254280  0.00361591  0.92088851    -0.63300
O472        O  0.61116390  0.95165979  0.87050475    -0.71700
O473        O  0.65100613  0.95144511  0.86985860    -0.71300
O474        O  0.65226738  0.00449423  0.91952339    -0.62500
O475        O  0.65250249  0.95401973  0.92087452    -0.75000
O476        O  0.65116547  0.00277592  0.86853274    -0.73800
Cu477      Cu  0.61068842  0.97751726  0.89565226     1.04600
Cu478      Cu  0.65312852  0.97818248  0.89460422     1.04300
C479        C  0.63095079  0.01044938  0.86113311     0.92500
C480        C  0.63312208  0.94526851  0.92937814     0.91600
C481        C  0.63252280  0.01237026  0.92816366     0.83800
C482        C  0.63083402  0.94314909  0.86246659     0.90100
O483        O  0.65453003  0.86529215  0.01320540    -0.73700
O484        O  0.65440987  0.81782496  0.06682053    -0.74700
O485        O  0.66027932  0.81427792  0.01627850    -0.63300
O486        O  0.64967554  0.86755622  0.06333308    -0.71700
O487        O  0.61019360  0.86361908  0.05969163    -0.71300
O488        O  0.62111714  0.80948155  0.01188484    -0.62500
O489        O  0.61515565  0.81290644  0.06238094    -0.75000
O490        O  0.61562243  0.85967653  0.00866288    -0.73800
Cu491      Cu  0.65606868  0.84130049  0.03990803     1.04600
Cu492      Cu  0.61413671  0.83622315  0.03545869     1.04300
C493        C  0.63492923  0.87042925  0.00259847     0.92500
C494        C  0.63452017  0.80859919  0.07368235     0.91600
C495        C  0.64259614  0.80346704  0.00641103     0.83800
C496        C  0.62850288  0.87371931  0.06941902     0.90100
C497        C  0.60475117  0.23884094  0.88390292     0.85700
C498        C  0.60992124  0.22006791  0.86464299    -0.54500
C499        C  0.63156348  0.20871368  0.86667842     0.08700
C500        C  0.64595304  0.21688251  0.88922013     0.19600
C501        C  0.60725630  0.22551302  0.90785124    -0.55200
C502        C  0.62845086  0.21353480  0.91039781     0.08800
C503        C  0.62692709  0.25533910  0.88408087    -0.54800
C504        C  0.64856141  0.24432786  0.88702637     0.09300
H505        H  0.59741914  0.21632384  0.85018378     0.13900
H506        H  0.66323527  0.20777990  0.89210330    -0.00400
H507        H  0.59378488  0.22563434  0.92192752     0.14200
H508        H  0.62551394  0.27465144  0.88274034     0.13900
O509        O  0.65468813  0.10050115  0.05817021    -0.73700
O510        O  0.65752218  0.14654704  0.00291950    -0.74700
O511        O  0.65770189  0.15143130  0.05400338    -0.63300
O512        O  0.65497174  0.09617192  0.00749874    -0.71700
O513        O  0.61522436  0.09831375  0.00700105    -0.71300
O514        O  0.61785133  0.15271044  0.05485195    -0.62500
O515        O  0.61779808  0.14885186  0.00432442    -0.75000
O516        O  0.61486857  0.10163283  0.05767765    -0.73800
Cu517      Cu  0.65763598  0.12368903  0.03076774     1.04600
Cu518      Cu  0.61507908  0.12552568  0.03104970     1.04300
C519        C  0.63434730  0.09314305  0.06601214     0.92500
C520        C  0.63775857  0.15433886  0.99445189     0.91600
C521        C  0.63825095  0.16068153  0.06182354     0.83800
C522        C  0.63472058  0.08875381  0.99958992     0.90100
O523        O  0.65143824  0.95695701  0.14635090    -0.73700
O524        O  0.65848566  0.01244008  0.19140551    -0.74700
O525        O  0.65721045  0.96223281  0.19709060    -0.63300
O526        O  0.65267912  0.00799769  0.14205116    -0.71700
O527        O  0.61313871  0.00961639  0.14627848    -0.71300
O528        O  0.61779649  0.96251495  0.20064735    -0.62500
O529        O  0.61889525  0.01356231  0.19619486    -0.75000
O530        O  0.61178597  0.95853733  0.14996717    -0.73800
Cu531      Cu  0.65627529  0.98469023  0.16903664     1.04600
Cu532      Cu  0.61398912  0.98594626  0.17344604     1.04300
C533        C  0.63055603  0.94917674  0.14073686     0.92500
C534        C  0.63979935  0.02225049  0.20018317     0.91600
C535        C  0.63826276  0.95551494  0.20814350     0.83800
C536        C  0.63243689  0.01682123  0.13609059     0.90100
C537        C  0.60750230  0.26672870  0.15381425     0.85700
C538        C  0.61137687  0.24914025  0.13289696    -0.54500
C539        C  0.63203329  0.23586943  0.13392641     0.08700
C540        C  0.64702653  0.24141542  0.15669117     0.19600
C541        C  0.60927974  0.25113351  0.17654935    -0.55200
C542        C  0.62927479  0.23701142  0.17769639     0.08800
C543        C  0.63057022  0.28171585  0.15537884    -0.54800
C544        C  0.65123652  0.26890843  0.15682752     0.09300
H545        H  0.59827979  0.24698409  0.11864403     0.13900
H546        H  0.66399002  0.23124723  0.15771743    -0.00400
H547        H  0.59632451  0.25109448  0.19094706     0.14200
H548        H  0.63058061  0.30117924  0.15611494     0.13900
O549        O  0.36885830  0.88123309  0.00269860    -0.73700
O550        O  0.37580370  0.83536960  0.05819232    -0.74700
O551        O  0.37255191  0.82978349  0.00762543    -0.63300
O552        O  0.37244687  0.88571261  0.05320217    -0.71700
O553        O  0.33271018  0.88311024  0.05600340    -0.71300
O554        O  0.33286029  0.82742721  0.01063679    -0.62500
O555        O  0.33614723  0.83296793  0.06111096    -0.75000
O556        O  0.32921837  0.87876522  0.00568822    -0.73800
Cu557      Cu  0.37380311  0.85810733  0.03021909     1.04600
Cu558      Cu  0.33136727  0.85544768  0.03335491     1.04300
C559        C  0.34796340  0.88776379  0.99585115     0.92500
C560        C  0.35700284  0.82723422  0.06863606     0.91600
C561        C  0.35268738  0.81952516  0.00224669     0.83800
C562        C  0.35257970  0.89286530  0.06206302     0.90100
O563        O  0.36507432  0.96892780  0.86278651    -0.73700
O564        O  0.36049147  0.02038097  0.91340787    -0.74700
O565        O  0.36220046  0.96904570  0.91368102    -0.63300
O566        O  0.36407797  0.02024021  0.86272094    -0.71700
O567        O  0.32442516  0.01807126  0.85956288    -0.71300
O568        O  0.32244390  0.96812231  0.91244934    -0.62500
O569        O  0.32076161  0.01969104  0.91055948    -0.75000
O570        O  0.32564030  0.96638744  0.86165106    -0.73800
Cu571      Cu  0.36429348  0.99472400  0.88821169     1.04600
Cu572      Cu  0.32192162  0.99307402  0.88591740     1.04300
C573        C  0.34611635  0.95879530  0.85467373     0.92500
C574        C  0.33994345  0.02835426  0.91977346     0.91600
C575        C  0.34221309  0.96039639  0.92110368     0.83800
C576        C  0.34455936  0.02726580  0.85313715     0.90100
C577        C  0.37865528  0.86543433  0.29158435     0.85700
C578        C  0.37187237  0.84243100  0.27737472    -0.54500
C579        C  0.35015169  0.84312963  0.26571066     0.08700
C580        C  0.33635075  0.86673074  0.27067919     0.19600
C581        C  0.37585022  0.88533720  0.27311425    -0.55200
C582        C  0.35401137  0.88670817  0.26232243     0.08800
C583        C  0.35735906  0.86821000  0.30879155    -0.54800
C584        C  0.33526192  0.86897700  0.29841557     0.09300
H585        H  0.38273354  0.82657325  0.27633457     0.13900
H586        H  0.31840419  0.86741525  0.26229972    -0.00400
H587        H  0.39079103  0.89789150  0.26860495     0.14200
H588        H  0.35966861  0.86904727  0.32821243     0.13900
O589        O  0.36291716  0.02960929  0.18946593    -0.73700
O590        O  0.36850677  0.97720240  0.14095980    -0.74700
O591        O  0.36596387  0.02785833  0.13897226    -0.63300
O592        O  0.36565670  0.97828903  0.19125238    -0.71700
O593        O  0.32612327  0.97503645  0.18864724    -0.71300
O594        O  0.32624564  0.02642217  0.13763477    -0.62500
O595        O  0.32868606  0.97542417  0.13852779    -0.75000
O596        O  0.32310306  0.02696401  0.18808641    -0.73800
Cu597      Cu  0.36711331  0.00335566  0.16534749     1.04600
Cu598      Cu  0.32462546  0.00090927  0.16325747     1.04300
C599        C  0.34221646  0.03702422  0.19586300     0.92500
C600        C  0.34939270  0.96804552  0.13220033     0.91600
C601        C  0.34617988  0.03516133  0.13012346     0.83800
C602        C  0.34609119  0.96776184  0.19721794     0.90100
O603        O  0.36664220  0.11486925  0.04662698    -0.73700
O604        O  0.36717859  0.16425900  0.99425236    -0.74700
O605        O  0.36969098  0.16551446  0.04518249    -0.63300
O606        O  0.36406389  0.11315956  0.99576164    -0.71700
O607        O  0.32432451  0.11537668  0.99764724    -0.71300
O608        O  0.32997045  0.16849250  0.04650999    -0.62500
O609        O  0.32752074  0.16619507  0.99497521    -0.75000
O610        O  0.32700568  0.11767244  0.04874874    -0.73800
Cu611      Cu  0.36824786  0.13947267  0.02036067     1.04600
Cu612      Cu  0.32581546  0.14211111  0.02205036     1.04300
C613        C  0.34667936  0.10848171  0.05603642     0.92500
C614        C  0.34761313  0.17241154  0.98565515     0.91600
C615        C  0.35073033  0.17483107  0.05402798     0.83800
C616        C  0.34332118  0.10581717  0.98909721     0.90100
C617        C  0.33984580  0.21853962  0.85145462     0.85700
C618        C  0.32152563  0.23876299  0.85159840    -0.54500
C619        C  0.32446721  0.25504024  0.86953472     0.08700
C620        C  0.34588841  0.24968095  0.88632509     0.19600
C621        C  0.36484201  0.23104425  0.85176411    -0.55200
C622        C  0.36813848  0.24798827  0.86960245     0.08800
C623        C  0.33857567  0.20775116  0.87664632    -0.54800
C624        C  0.34197884  0.22347675  0.89514910     0.09300
H625        H  0.30706767  0.23998573  0.83861478     0.13900
H626        H  0.34774067  0.26333088  0.90064537    -0.00400
H627        H  0.37895497  0.22602021  0.83934589     0.14200
H628        H  0.33780810  0.18860526  0.87978951     0.13900
C629        C  0.14635695  0.62043413  0.29249362     0.85700
C630        C  0.12397746  0.62156468  0.27617903    -0.54500
C631        C  0.12114261  0.64224319  0.26329634     0.08700
C632        C  0.14264357  0.65978113  0.26746720     0.19600
C633        C  0.16747482  0.62466102  0.27586474    -0.55200
C634        C  0.16574513  0.64452454  0.26204824     0.08800
C635        C  0.14391938  0.64335371  0.30764688    -0.54800
C636        C  0.14222714  0.66409296  0.29489272     0.09300
H637        H  0.11150276  0.60684593  0.27487109     0.13900
H638        H  0.14163625  0.67700201  0.25790440    -0.00400
H639        H  0.18172417  0.61162606  0.27354067     0.14200
H640        H  0.14181451  0.64314245  0.32697139     0.13900
C641        C  0.88244972  0.65026612  0.26588065     0.85700
C642        C  0.87693168  0.67058350  0.28373133    -0.54500
C643        C  0.85712823  0.66675478  0.29774328     0.08700
C644        C  0.84322350  0.64313121  0.29129168     0.19600
C645        C  0.88257218  0.62741535  0.28137416    -0.55200
C646        C  0.86181363  0.62265814  0.29399190     0.08800
C647        C  0.85889817  0.64906179  0.25133497    -0.54800
C648        C  0.83855264  0.64440793  0.26424302     0.09300
H649        H  0.88757712  0.68683976  0.28542532     0.13900
H650        H  0.82621639  0.64038872  0.30108640    -0.00400
H651        H  0.89847170  0.61640437  0.28251750     0.14200
H652        H  0.85812955  0.65172914  0.23210890     0.13900
O653        O  0.02321495  0.64005093  0.85181449    -0.73700
O654        O  0.97264191  0.64893527  0.90279877    -0.74700
O655        O  0.02325734  0.64553422  0.90226996    -0.63300
O656        O  0.97216987  0.64272012  0.85153792    -0.71700
O657        O  0.96830992  0.60380967  0.85719741    -0.71300
O658        O  0.02137116  0.60589770  0.90565132    -0.62500
O659        O  0.97095553  0.60958399  0.90796008    -0.75000
O660        O  0.01946234  0.60068067  0.85464504    -0.73800
Cu661      Cu  0.99785453  0.64566649  0.87687278     1.04600
Cu662      Cu  0.99491614  0.60361901  0.88141686     1.04300
C663        C  0.02952708  0.61906078  0.84519574     0.92500
C664        C  0.96444131  0.63071336  0.91405183     0.91600
C665        C  0.03019529  0.62610311  0.91203533     0.83800
C666        C  0.96184517  0.62283061  0.84639861     0.90100
O667        O  0.89179197  0.62455232  0.00651350    -0.73700
O668        O  0.84317959  0.63290159  0.05894414    -0.74700
O669        O  0.84085528  0.62255059  0.00905720    -0.63300
O670        O  0.89354035  0.63545547  0.05631329    -0.71700
O671        O  0.89200911  0.67438002  0.04839998    -0.71300
O672        O  0.83898844  0.66149425  0.00128777    -0.62500
O673        O  0.84125757  0.67192324  0.05135068    -0.75000
O674        O  0.89002680  0.66340718  0.99843494    -0.73800
Cu675      Cu  0.86740140  0.62753052  0.03297113     1.04600
Cu676      Cu  0.86549505  0.66918078  0.02457129     1.04300
C677        C  0.89847426  0.64255031  0.99403864     0.92500
C678        C  0.83486412  0.65366262  0.06363316     0.91600
C679        C  0.83169465  0.64002987  0.99759056     0.83800
C680        C  0.90091628  0.65690044  0.05999865     0.90100
C681        C  0.23201296  0.62142734  0.86685734     0.85700
C682        C  0.24829756  0.64333752  0.86931512    -0.54500
C683        C  0.26282586  0.64334174  0.88877947     0.08700
C684        C  0.25958058  0.62068315  0.90490155     0.19600
C685        C  0.24872920  0.59943784  0.86827755    -0.55200
C686        C  0.26360189  0.59910001  0.88778564     0.08800
C687        C  0.21843666  0.61986292  0.89067555    -0.54800
C688        C  0.23216101  0.61932818  0.91096825     0.09300
H689        H  0.24863366  0.65770116  0.85620948     0.13900
H690        H  0.27182744  0.62008775  0.92040540    -0.00400
H691        H  0.24795413  0.58443079  0.85593237     0.14200
H692        H  0.19896584  0.61935335  0.89129009     0.13900
O693        O  0.15759437  0.61637986  0.00150353    -0.73700
O694        O  0.10556059  0.62701625  0.04940605    -0.74700
O695        O  0.10660254  0.61758322  0.99947067    -0.63300
O696        O  0.15580295  0.62601903  0.05092171    -0.71700
O697        O  0.15804985  0.66494548  0.04275290    -0.71300
O698        O  0.10778656  0.65677376  0.99259472    -0.62500
O699        O  0.10772968  0.66621672  0.04315385    -0.75000
O700        O  0.15900751  0.65514994  0.99289515    -0.73800
Cu701      Cu  0.13128853  0.62040807  0.02549753     1.04600
Cu702      Cu  0.13310764  0.66217334  0.01751708     1.04300
C703        C  0.16654840  0.63375951  0.98957930     0.92500
C704        C  0.09929502  0.64832807  0.05480371     0.91600
C705        C  0.09946142  0.63590149  0.98789623     0.83800
C706        C  0.16454914  0.64684597  0.05494287     0.90100
O707        O  0.97728675  0.68024272  0.19648349    -0.73700
O708        O  0.02878714  0.67940122  0.14460209    -0.74700
O709        O  0.97839492  0.68200998  0.14520857    -0.63300
O710        O  0.02945830  0.67803197  0.19575551    -0.71700
O711        O  0.02754848  0.63829047  0.19398200    -0.71300
O712        O  0.97602592  0.64230726  0.14465087    -0.62500
O713        O  0.02610287  0.63968771  0.14350978    -0.75000
O714        O  0.97626030  0.64050158  0.19505906    -0.73800
Cu715      Cu  0.00356423  0.68138315  0.17078122     1.04600
Cu716      Cu  0.00141720  0.63889870  0.16943985     1.04300
C717        C  0.96799643  0.66026265  0.20314854     0.92500
C718        C  0.03493215  0.65923443  0.13550439     0.91600
C719        C  0.96980021  0.66263617  0.13638092     0.83800
C720        C  0.03716301  0.65749028  0.20214956     0.90100
C721        C  0.23119739  0.65079311  0.13349010     0.85700
C722        C  0.24892512  0.67099650  0.13771402    -0.54500
C723        C  0.26193063  0.66885216  0.15808364     0.08700
C724        C  0.25524708  0.64616360  0.17332767     0.19600
C725        C  0.24620390  0.62762046  0.13511476    -0.55200
C726        C  0.25869776  0.62449815  0.15599633     0.08800
C727        C  0.21558343  0.64979139  0.15615504    -0.54800
C728        C  0.22766729  0.64747181  0.17722604     0.09300
H729        H  0.25189261  0.68535716  0.12492531     0.13900
H730        H  0.26495434  0.64434968  0.19035040    -0.00400
H731        H  0.24666646  0.61445796  0.12099893     0.14200
H732        H  0.19613162  0.65040608  0.15554356     0.13900
O733        O  0.88843732  0.30681766  0.00207572    -0.73700
O734        O  0.83630507  0.31524209  0.05107429    -0.74700
O735        O  0.83792504  0.31044434  0.99943244    -0.63300
O736        O  0.88746903  0.31265458  0.05285694    -0.71700
O737        O  0.88979978  0.35201612  0.04795902    -0.71300
O738        O  0.84043370  0.34998747  0.99606039    -0.62500
O739        O  0.83882305  0.35476905  0.04733044    -0.75000
O740        O  0.89072961  0.34634455  0.99777718    -0.73800
Cu741      Cu  0.86236003  0.30987424  0.02654022     1.04600
Cu742      Cu  0.86498942  0.35210935  0.02220849     1.04300
C743        C  0.89748160  0.32524432  0.99196783     0.92500
C744        C  0.82963718  0.33624075  0.05733024     0.91600
C745        C  0.83204664  0.32989380  0.98882574     0.83800
C746        C  0.89652175  0.33303985  0.05864170     0.90100
O747        O  0.01877760  0.34727454  0.85198437    -0.73700
O748        O  0.96953367  0.34426689  0.90432215    -0.74700
O749        O  0.01997081  0.34590269  0.90231841    -0.63300
O750        O  0.96759496  0.34609395  0.85378432    -0.71700
O751        O  0.96667153  0.30649934  0.85374616    -0.71300
O752        O  0.02191012  0.30621846  0.90021504    -0.62500
O753        O  0.97130520  0.30449036  0.90386337    -0.75000
O754        O  0.01860798  0.30749744  0.84984908    -0.73800
Cu755      Cu  0.99391813  0.34724364  0.87804772     1.04600
Cu756      Cu  0.99464486  0.30475493  0.87671615     1.04300
C757        C  0.02685467  0.32778291  0.84306101     0.92500
C758        C  0.96315460  0.32392589  0.91272153     0.91600
C759        C  0.02937911  0.32618577  0.90880590     0.83800
C760        C  0.95783687  0.32647406  0.84696947     0.90100
O761        O  0.97568791  0.32573437  0.14416579    -0.73700
O762        O  0.03025505  0.32909372  0.19170769    -0.74700
O763        O  0.97813704  0.33296552  0.19455687    -0.63300
O764        O  0.02632155  0.32263755  0.14082273    -0.71700
O765        O  0.02820339  0.36198763  0.13542684    -0.71300
O766        O  0.98187110  0.37199208  0.18927061    -0.62500
O767        O  0.03312474  0.36824547  0.18588343    -0.75000
O768        O  0.97776003  0.36498448  0.13861644    -0.73800
Cu769      Cu  0.00254525  0.32626160  0.16820273     1.04600
Cu770      Cu  0.00532949  0.36814985  0.16232579     1.04300
C771        C  0.96859837  0.34452290  0.13331685     0.92500
C772        C  0.04097145  0.34907665  0.19563304     0.91600
C773        C  0.97163384  0.35437421  0.19968614     0.83800
C774        C  0.03413413  0.34081070  0.12915451     0.90100
C775        C  0.88216734  0.36114950  0.25444619     0.85700
C776        C  0.87662241  0.38310224  0.26968124    -0.54500
C777        C  0.85426220  0.38355299  0.27955790     0.08700
C778        C  0.83853255  0.36149924  0.27260438     0.19600
C779        C  0.87618038  0.33971779  0.27069812    -0.55200
C780        C  0.85358903  0.33966831  0.28043342     0.08800
C781        C  0.86195531  0.35991576  0.23566508    -0.54800
C782        C  0.83904162  0.36025486  0.24485643     0.09300
H783        H  0.89000629  0.39685119  0.27346305     0.13900
H784        H  0.82006116  0.36192106  0.27999409    -0.00400
H785        H  0.88809034  0.32482970  0.27340080     0.14200
H786        H  0.86551667  0.35871851  0.21659426     0.13900
O787        O  0.11181377  0.32186073  0.04188545    -0.73700
O788        O  0.16270917  0.32900635  0.99203213    -0.74700
O789        O  0.16149453  0.33342223  0.04201594    -0.63300
O790        O  0.11333440  0.31834770  0.99099396    -0.71700
O791        O  0.10437532  0.35701449  0.98880156    -0.71300
O792        O  0.15389775  0.37222694  0.03751417    -0.62500
O793        O  0.15376509  0.36730739  0.98682931    -0.75000
O794        O  0.10409102  0.36073800  0.03972317    -0.73800
Cu795      Cu  0.13759235  0.32435337  0.01692980     1.04600
Cu796      Cu  0.12871594  0.36573853  0.01322750     1.04300
C797        C  0.10011539  0.34012641  0.04907039     0.92500
C798        C  0.16556288  0.34860951  0.98070793     0.91600
C799        C  0.16561513  0.35535468  0.04729357     0.83800
C800        C  0.10161258  0.33548609  0.98152393     0.90100
C801        C  0.22099181  0.35028460  0.84823497     0.85700
C802        C  0.20675083  0.35044421  0.87173801    -0.54500
C803        C  0.22007520  0.35063352  0.89205788     0.08700
C804        C  0.24734731  0.35096981  0.88720842     0.19600
C805        C  0.23834214  0.37195483  0.85018925    -0.55200
C806        C  0.25201085  0.37296174  0.87085868     0.08800
C807        C  0.23745429  0.32831587  0.85117375    -0.54800
C808        C  0.25200355  0.32912297  0.87075607     0.09300
H809        H  0.18724918  0.34987859  0.87232435     0.13900
H810        H  0.25731468  0.35058461  0.90423616    -0.00400
H811        H  0.23999495  0.38493489  0.83588664     0.14200
H812        H  0.23778663  0.31293185  0.83950695     0.13900
C813        C  0.12631537  0.24671525  0.62185330     0.85700
C814        C  0.12625805  0.26254643  0.64429583    -0.54500
C815        C  0.12669663  0.25064762  0.66532344     0.08700
C816        C  0.12602301  0.22306465  0.66245310     0.19600
C817        C  0.14704169  0.22891897  0.62479496    -0.55200
C818        C  0.14758929  0.21639113  0.64593957     0.08800
C819        C  0.10353929  0.23118202  0.62582784    -0.54800
C820        C  0.10353239  0.21807787  0.64669177     0.09300
H821        H  0.12525371  0.28199262  0.64372964     0.13900
H822        H  0.12597817  0.21425812  0.68010644    -0.00400
H823        H  0.15939712  0.22547817  0.61014098     0.14200
H824        H  0.08859717  0.23025426  0.61345773     0.13900
C825        C  0.85517605  0.25265142  0.62878525     0.85700
C826        C  0.87689130  0.23572761  0.62912613    -0.54500
C827        C  0.87785262  0.22022201  0.64795923     0.08700
C828        C  0.85613225  0.22287616  0.66521268     0.19600
C829        C  0.83375172  0.23476698  0.62964523    -0.55200
C830        C  0.83381958  0.21929898  0.64882528     0.08800
C831        C  0.85528862  0.26487432  0.65323821    -0.54800
C832        C  0.85617708  0.24984666  0.67238400     0.09300
H833        H  0.88995237  0.23487875  0.61478940     0.13900
H834        H  0.85639652  0.21045529  0.68066211    -0.00400
H835        H  0.81989904  0.23409747  0.61600366     0.14200
H836        H  0.85559281  0.28424767  0.65525068     0.13900
O837        O  0.01148069  0.82053934  0.65382866    -0.73700
O838        O  0.96062225  0.86986951  0.64359430    -0.74700
O839        O  0.01153413  0.87087310  0.64911662    -0.63300
O840        O  0.96067680  0.81955931  0.64950230    -0.71700
O841        O  0.95774588  0.82463521  0.68836858    -0.71300
O842        O  0.00834588  0.87410874  0.68865128    -0.62500
O843        O  0.95777235  0.87483915  0.68290041    -0.75000
O844        O  0.00773091  0.82408517  0.69321906    -0.73800
Cu845      Cu  0.98621412  0.84513261  0.64759049     1.04600
Cu846      Cu  0.98269662  0.84965234  0.68959862     1.04300
C847        C  0.01769419  0.81447717  0.67493460     0.92500
C848        C  0.95084785  0.87991108  0.66167915     0.91600
C849        C  0.01837681  0.87999911  0.66903976     0.83800
C850        C  0.95122704  0.81366948  0.66949255     0.90100
O851        O  0.86519092  0.00770203  0.63611176    -0.73700
O852        O  0.81345037  0.95652170  0.64265288    -0.74700
O853        O  0.81474440  0.00844383  0.64106025    -0.63300
O854        O  0.86426727  0.95639631  0.63714520    -0.71700
O855        O  0.86936744  0.95887745  0.67646291    -0.71300
O856        O  0.81691286  0.00755708  0.68058752    -0.62500
O857        O  0.81950594  0.95614394  0.68162545    -0.75000
O858        O  0.86755226  0.00954216  0.67575034    -0.73800
Cu859      Cu  0.83911255  0.98222813  0.63783259     1.04600
Cu860      Cu  0.84329721  0.98311890  0.67993038     1.04300
C861        C  0.87453148  0.01657966  0.65512746     0.92500
C862        C  0.80938804  0.94713393  0.66317128     0.91600
C863        C  0.80870801  0.01693479  0.66146018     0.83800
C864        C  0.87478899  0.94958391  0.65623480     0.90100
C865        C  0.25522433  0.83848548  0.70865059     0.85700
C866        C  0.24150206  0.86251760  0.70691301    -0.54500
C867        C  0.22896963  0.86527247  0.68585921     0.08700
C868        C  0.23206334  0.84409279  0.66826405     0.19600
C869        C  0.23601576  0.81926989  0.70370489    -0.55200
C870        C  0.22393772  0.82162696  0.68243843     0.08800
C871        C  0.27111797  0.83920920  0.68606071    -0.54800
C872        C  0.25933934  0.84185567  0.66506953     0.09300
H873        H  0.24160001  0.87615158  0.72081336     0.13900
H874        H  0.22296308  0.84661296  0.65089348    -0.00400
H875        H  0.23218519  0.80504233  0.71636192     0.14200
H876        H  0.29055731  0.83868223  0.68658573     0.13900
O877        O  0.15675009  0.95625226  0.68420446    -0.73700
O878        O  0.10723202  0.00719500  0.67623073    -0.74700
O879        O  0.10620355  0.95741244  0.68630675    -0.63300
O880        O  0.15816274  0.00590988  0.67295830    -0.71700
O881        O  0.15646974  0.99605192  0.63439363    -0.71300
O882        O  0.10371288  0.95066422  0.64713630    -0.62500
O883        O  0.10580202  0.00009387  0.63716700    -0.75000
O884        O  0.15372454  0.94659504  0.64576024    -0.73800
Cu885      Cu  0.13224261  0.98203705  0.68131584     1.04600
Cu886      Cu  0.12993093  0.97310006  0.63977525     1.04300
C887        C  0.16248117  0.94282261  0.66657007     0.92500
C888        C  0.09852686  0.01171984  0.65561997     0.91600
C889        C  0.09688928  0.94638437  0.66844939     0.83800
C890        C  0.16517824  0.00870268  0.65131635     0.90100
O891        O  0.96179787  0.09282857  0.67172048    -0.73700
O892        O  0.01629934  0.14058673  0.67265571    -0.74700
O893        O  0.96439733  0.14339814  0.67124764    -0.63300
O894        O  0.01345510  0.09007320  0.67228302    -0.71700
O895        O  0.01372739  0.08963169  0.63257780    -0.71300
O896        O  0.96669674  0.14378893  0.63189822    -0.62500
O897        O  0.01740179  0.14031380  0.63311307    -0.75000
O898        O  0.96175959  0.09305663  0.63200821    -0.73800
Cu899      Cu  0.98894027  0.11674451  0.67335273     1.04600
Cu900      Cu  0.98989318  0.11665097  0.63105290     1.04300
C901        C  0.95287574  0.08568726  0.65186030     0.92500
C902        C  0.02590083  0.14769115  0.65311768     0.91600
C903        C  0.95743382  0.15185778  0.65116471     0.83800
C904        C  0.02180060  0.08192293  0.65249390     0.90100
C905        C  0.22383964  0.09270650  0.64270352     0.85700
C906        C  0.24152771  0.09932789  0.62291502    -0.54500
C907        C  0.25167357  0.12172785  0.62483917     0.08700
C908        C  0.24358505  0.13515339  0.64803912     0.19600
C909        C  0.23781896  0.09592518  0.66612461    -0.55200
C910        C  0.24921623  0.11739552  0.66847401     0.08800
C911        C  0.20585614  0.11348686  0.64362034    -0.54800
C912        C  0.21561010  0.13580535  0.64684046     0.09300
H913        H  0.24582057  0.08696077  0.60852358     0.13900
H914        H  0.25169706  0.15302426  0.65101005    -0.00400
H915        H  0.23927114  0.08233309  0.67981788     0.14200
H916        H  0.18659858  0.11068234  0.64228953     0.13900
O917        O  0.87272799  0.97578233  0.38987498    -0.73700
O918        O  0.82118464  0.02524342  0.38945395    -0.74700
O919        O  0.82251348  0.97447220  0.39642860    -0.63300
O920        O  0.87105681  0.02573776  0.38259703    -0.71700
O921        O  0.86646172  0.02002023  0.34349003    -0.71300
O922        O  0.81677821  0.96909515  0.35741317    -0.62500
O923        O  0.81628336  0.02090932  0.35028915    -0.75000
O924        O  0.86724156  0.96956463  0.35101767    -0.73800
Cu925      Cu  0.84686900  0.00049010  0.39090607     1.04600
Cu926      Cu  0.84131620  0.99464544  0.34916305     1.04300
C927        C  0.87827205  0.96488709  0.37052094     0.92500
C928        C  0.81185780  0.03216216  0.36981593     0.91600
C929        C  0.81262146  0.96312292  0.37911357     0.83800
C930        C  0.87674301  0.03068286  0.36099939     0.90100
O931        O  0.96645959  0.84096792  0.39871221    -0.73700
O932        O  0.01558435  0.89313079  0.38872287    -0.74700
O933        O  0.96486094  0.89097391  0.39154717    -0.63300
O934        O  0.01804100  0.84272162  0.39576227    -0.71700
O935        O  0.01816545  0.83932034  0.35641911    -0.71300
O936        O  0.96167517  0.88379294  0.35258805    -0.62500
O937        O  0.01253418  0.88873722  0.34928339    -0.75000
O938        O  0.96709290  0.83336507  0.36002588    -0.73800
Cu939      Cu  0.99132666  0.86708484  0.39505572     1.04600
Cu940      Cu  0.98973708  0.86102027  0.35323115     1.04300
C941        C  0.95859684  0.82892755  0.38084075     0.92500
C942        C  0.02167333  0.89920325  0.36751595     0.91600
C943        C  0.95467910  0.89480553  0.37146233     0.83800
C944        C  0.02737779  0.83414211  0.37663561     0.90100
O945        O  0.01065588  0.16129483  0.36534025    -0.73700
O946        O  0.96142393  0.10883484  0.36838918    -0.74700
O947        O  0.01234329  0.11078586  0.36690888    -0.63300
O948        O  0.95993810  0.15907967  0.36724479    -0.71700
O949        O  0.95736149  0.15770533  0.32761823    -0.71300
O950        O  0.01216240  0.11013752  0.32724380    -0.62500
O951        O  0.96048214  0.10710587  0.32865869    -0.75000
O952        O  0.00880421  0.16083343  0.32562702    -0.73800
Cu953      Cu  0.98612730  0.13504685  0.36827598     1.04600
Cu954      Cu  0.98466222  0.13388292  0.32582489     1.04300
C955        C  0.01778081  0.16908711  0.34504484     0.92500
C956        C  0.95290388  0.09997619  0.34904444     0.91600
C957        C  0.02108457  0.10320439  0.34715914     0.83800
C958        C  0.94989416  0.16559279  0.34784837     0.90100
C959        C  0.85745952  0.26146052  0.39530635     0.85700
C960        C  0.83567704  0.24415853  0.39452266    -0.54500
C961        C  0.83225217  0.23253446  0.37313416     0.08700
C962        C  0.85085486  0.23989965  0.35413272     0.19600
C963        C  0.87882123  0.24663921  0.38720581    -0.55200
C964        C  0.87567885  0.23513347  0.36593235     0.08800
C965        C  0.85230432  0.27834182  0.37429274    -0.54800
C966        C  0.84850350  0.26751724  0.35251265     0.09300
H967        H  0.82304139  0.24202761  0.40908902     0.13900
H968        H  0.84758084  0.23054535  0.33728380    -0.00400
H969        H  0.89477156  0.24432260  0.39812660     0.14200
H970        H  0.85169615  0.29761196  0.37665201     0.13900
O971        O  0.15540201  0.97807946  0.38582567    -0.73700
O972        O  0.10594709  0.02940665  0.37591612    -0.74700
O973        O  0.10457991  0.97933327  0.38221937    -0.63300
O974        O  0.15696898  0.02896561  0.37944307    -0.71700
O975        O  0.16039640  0.02345526  0.34016289    -0.71300
O976        O  0.10704151  0.97480627  0.34273832    -0.62500
O977        O  0.10951151  0.02525912  0.33662654    -0.75000
O978        O  0.15758607  0.97209439  0.34669156    -0.73800
Cu979      Cu  0.13074998  0.00415335  0.38220248     1.04600
Cu980      Cu  0.13384519  0.99874567  0.34017644     1.04300
C981        C  0.16364332  0.96624770  0.36797531     0.92500
C982        C  0.09964726  0.03530184  0.35476008     0.91600
C983        C  0.09739974  0.96949996  0.36280620     0.83800
C984        C  0.16662255  0.03432345  0.35937351     0.90100
C985        C  0.25371530  0.86205819  0.41567252     0.85700
C986        C  0.23888184  0.88514814  0.41162307    -0.54500
C987        C  0.22849502  0.88676502  0.38932730     0.08700
C988        C  0.23486758  0.86534834  0.37272146     0.19600
C989        C  0.23659565  0.84156309  0.40915315    -0.55200
C990        C  0.22673497  0.84264785  0.38677489     0.08800
C991        C  0.27205132  0.86336841  0.39516746    -0.54800
C992        C  0.26263180  0.86489164  0.37280913     0.09300
H993        H  0.23703293  0.89932468  0.42478737     0.13900
H994        H  0.22740697  0.86671366  0.35441223    -0.00400
H995        H  0.23237236  0.82727116  0.42165482     0.14200
H996        H  0.29130669  0.86406659  0.39812840     0.13900
C997        C  0.10293790  0.22776108  0.36006689     0.85700
C998        C  0.10373383  0.23964950  0.38506119    -0.54500
C999        C  0.12500519  0.25079451  0.39041030     0.08700
C1000       C  0.14458442  0.24733723  0.37102404     0.19600
C1001       C  0.11133120  0.24746820  0.34283934    -0.55200
C1002       C  0.13323300  0.25772898  0.34796721     0.08800
C1003       C  0.12396187  0.21002456  0.36145412    -0.54800
C1004       C  0.14571902  0.21985495  0.36705333     0.09300
H1005       H  0.08908165  0.23943748  0.39778932     0.13900
H1006       H  0.16228230  0.25501943  0.37590253    -0.00400
H1007       H  0.10048414  0.25297258  0.32770043     0.14200
H1008       H  0.12170321  0.19081238  0.35903107     0.13900
C1009       C  0.25922853  0.13541782  0.40041391     0.85700
C1010       C  0.24115275  0.15621697  0.39845267    -0.54500
C1011       C  0.22888716  0.15702495  0.37725510     0.08700
C1012       C  0.23725812  0.13787002  0.35889357     0.19600
C1013       C  0.24457276  0.11291716  0.39370746    -0.55200
C1014       C  0.23318254  0.11356213  0.37190975     0.08800
C1015       C  0.27581189  0.14013252  0.37893242    -0.54800
C1016       C  0.26482110  0.14131994  0.35722284     0.09300
H1017       H  0.23829477  0.16975835  0.41199962     0.13900
H1018       H  0.22870630  0.13940792  0.34115144    -0.00400
H1019       H  0.24285458  0.09787382  0.40585392     0.14200
H1020       H  0.29504570  0.14279709  0.38081203     0.13900
O1021       O  0.31678060  0.83169211  0.56462992    -0.73700
O1022       O  0.36552086  0.83443705  0.51185127    -0.74700
O1023       O  0.36684991  0.83168250  0.56254605    -0.63300
O1024       O  0.31487188  0.83455628  0.51334577    -0.71700
O1025       O  0.31544800  0.87433125  0.51472033    -0.71300
O1026       O  0.36685193  0.87143630  0.56507378    -0.62500
O1027       O  0.36617729  0.87415533  0.51428417    -0.75000
O1028       O  0.31638563  0.87143370  0.56619035    -0.73800
Cu1029     Cu  0.34085756  0.83171969  0.53795231     1.04600
Cu1030     Cu  0.34109796  0.87423115  0.54012097     1.04300
C1031       C  0.30989550  0.85113097  0.57459915     0.92500
C1032       C  0.37376069  0.85467973  0.50491265     0.91600
C1033       C  0.37464293  0.85111014  0.57196125     0.83800
C1034       C  0.30788122  0.85477904  0.50533527     0.90100
O1035       O  0.14921394  0.32039844  0.53129100    -0.73700
O1036       O  0.15053797  0.37372152  0.48322890    -0.74700
O1037       O  0.15065391  0.37145152  0.53381672    -0.63300
O1038       O  0.14938620  0.32320995  0.48016448    -0.71700
O1039       O  0.10956837  0.32319754  0.48091603    -0.71300
O1040       O  0.11081723  0.37230284  0.53405983    -0.62500
O1041       O  0.11065466  0.37400180  0.48338278    -0.75000
O1042       O  0.10942308  0.32117248  0.53233436    -0.73800
Cu1043     Cu  0.15130842  0.34705519  0.50714731     1.04600
Cu1044     Cu  0.10870652  0.34759234  0.50767039     1.04300
C1045       C  0.12930225  0.31279604  0.53994284     0.92500
C1046       C  0.13070146  0.38233584  0.47586315     0.91600
C1047       C  0.13099736  0.37989477  0.54204486     0.83800
C1048       C  0.12931330  0.31596628  0.47171298     0.90100
O1049       O  0.33172676  0.11244655  0.54283423    -0.73700
O1050       O  0.38320391  0.11246596  0.49155225    -0.74700
O1051       O  0.38287889  0.11145816  0.54272937    -0.63300
O1052       O  0.33174942  0.11316172  0.49178065    -0.71700
O1053       O  0.33131666  0.15285941  0.49286398    -0.71300
O1054       O  0.38412471  0.15116479  0.54311660    -0.62500
O1055       O  0.38202441  0.15184012  0.49156291    -0.75000
O1056       O  0.33291671  0.15222359  0.54407218    -0.73800
Cu1057     Cu  0.35734498  0.11100245  0.51718559     1.04600
Cu1058     Cu  0.35766711  0.15337157  0.51794968     1.04300
C1059       C  0.32436119  0.13234514  0.55157451     0.92500
C1060       C  0.39078026  0.13243755  0.48320758     0.91600
C1061       C  0.39138754  0.13102842  0.55127058     0.83800
C1062       C  0.32365502  0.13307487  0.48398895     0.90100
O1063       O  0.83732237  0.32798907  0.48615835    -0.73700
O1064       O  0.82796454  0.37549257  0.53916110    -0.74700
O1065       O  0.83144184  0.37812069  0.48824033    -0.63300
O1066       O  0.83420339  0.32521113  0.53699683    -0.71700
O1067       O  0.87320632  0.33129248  0.54074243    -0.71300
O1068       O  0.87102474  0.38239718  0.49037262    -0.62500
O1069       O  0.86745762  0.38100662  0.54138340    -0.75000
O1070       O  0.87686496  0.33211620  0.48939955    -0.73800
Cu1071     Cu  0.83136596  0.35152242  0.51249961     1.04600
Cu1072     Cu  0.87352747  0.35682998  0.51549206     1.04300
C1073       C  0.85851134  0.32270107  0.47928655     0.92500
C1074       C  0.84625239  0.38538475  0.54889083     0.91600
C1075       C  0.85085483  0.38837569  0.48139569     0.83800
C1076       C  0.85402292  0.32060353  0.54748973     0.90100
C1077       C  0.15089434  0.38396656  0.27988577     0.85700
C1078       C  0.15283399  0.36213415  0.29660381    -0.54500
C1079       C  0.15316539  0.33993197  0.28566480     0.08700
C1080       C  0.15058917  0.34248804  0.25796005     0.19600
C1081       C  0.17068476  0.38092905  0.26085736    -0.55200
C1082       C  0.17121785  0.35917110  0.24934108     0.08800
C1083       C  0.12736180  0.37835003  0.26680424    -0.54800
C1084       C  0.12707137  0.35725029  0.25458487     0.09300
H1085       H  0.15163461  0.36446744  0.31586168     0.13900
H1086       H  0.15149428  0.32555171  0.24865578    -0.00400
H1087       H  0.18286897  0.39551418  0.25637296     0.14200
H1088       H  0.11150232  0.38942126  0.26762018     0.13900
C1089       C  0.23551896  0.36513208  0.12173220     0.85700
C1090       C  0.25240379  0.38609354  0.12669930    -0.54500
C1091       C  0.26574902  0.38387486  0.14698538     0.08700
C1092       C  0.26152189  0.35977811  0.16042480     0.19600
C1093       C  0.25145949  0.34263595  0.12146170    -0.55200
C1094       C  0.26561716  0.33990285  0.14123475     0.08800
C1095       C  0.22094174  0.36200582  0.14491618    -0.54800
C1096       C  0.23398470  0.35903295  0.16534749     0.09300
H1097       H  0.25312022  0.40195678  0.11548543     0.13900
H1098       H  0.27292290  0.35748088  0.17647829    -0.00400
H1099       H  0.25119853  0.32943822  0.10711454     0.14200
H1100       H  0.20146573  0.36159942  0.14514885     0.13900
O1101       O  0.33026728  0.47970076  0.14170360    -0.73700
O1102       O  0.37887742  0.53364972  0.14592882    -0.74700
O1103       O  0.38057590  0.48289281  0.14364412    -0.63300
O1104       O  0.32770708  0.53162281  0.14396819    -0.71700
O1105       O  0.32601447  0.52979582  0.18362303    -0.71300
O1106       O  0.37961690  0.48162620  0.18326230    -0.62500
O1107       O  0.37700235  0.53192748  0.18558385    -0.75000
O1108       O  0.32887787  0.47792656  0.18139788    -0.73800
Cu1109     Cu  0.35421031  0.50706583  0.14242716     1.04600
Cu1110     Cu  0.35261209  0.50527816  0.18482528     1.04300
C1111       C  0.32296617  0.46952821  0.16088851     0.92500
C1112       C  0.38612450  0.54073826  0.16651377     0.91600
C1113       C  0.38874052  0.47483663  0.16336484     0.83800
C1114       C  0.31919589  0.53913914  0.16390652     0.90100
O1115       O  0.86309782  0.52273413  0.40608665    -0.73700
O1116       O  0.86507653  0.47455713  0.35202440    -0.74700
O1117       O  0.86475892  0.52551897  0.35560828    -0.63300
O1118       O  0.86468141  0.47211746  0.40260539    -0.71700
O1119       O  0.82482798  0.47078529  0.40258147    -0.71300
O1120       O  0.82497625  0.52449613  0.35359247    -0.62500
O1121       O  0.82543067  0.47239711  0.35194503    -0.75000
O1122       O  0.82330631  0.52187784  0.40452807    -0.73800
Cu1123     Cu  0.86571340  0.49877286  0.37898805     1.04600
Cu1124     Cu  0.82318510  0.49740006  0.37799659     1.04300
C1125       C  0.84271224  0.52988403  0.41383999     0.92500
C1126       C  0.84567611  0.46484146  0.34434498     0.91600
C1127       C  0.84515774  0.53390483  0.34755303     0.83800
C1128       C  0.84502737  0.46316943  0.41028491     0.90100
O1129       O  0.38644588  0.50680766  0.87351337    -0.73700
O1130       O  0.33189240  0.45964469  0.86627818    -0.74700
O1131       O  0.33592659  0.51070980  0.87112112    -0.63300
O1132       O  0.38265551  0.45650122  0.86852546    -0.71700
O1133       O  0.37972035  0.45277628  0.90802567    -0.71300
O1134       O  0.33414494  0.50769278  0.91077004    -0.62500
O1135       O  0.32921220  0.45697643  0.90581982    -0.75000
O1136       O  0.38476658  0.50259519  0.91291055    -0.73800
Cu1137     Cu  0.35918934  0.48353903  0.86844740     1.04600
Cu1138     Cu  0.35677465  0.47989697  0.91073578     1.04300
C1139       C  0.39447470  0.51188218  0.89437703     0.92500
C1140       C  0.32233620  0.45041799  0.88495989     0.91600
C1141       C  0.32813203  0.51805417  0.89136658     0.83800
C1142       C  0.38889318  0.44646572  0.88802781     0.90100
O1143       O  0.15572823  0.52098821  0.41058848    -0.73700
O1144       O  0.16261374  0.47563302  0.35552874    -0.74700
O1145       O  0.16269206  0.52599111  0.36142405    -0.63300
O1146       O  0.15545115  0.47002294  0.40549077    -0.71700
O1147       O  0.11588906  0.47021334  0.40045621    -0.71300
O1148       O  0.12325092  0.52585656  0.35594337    -0.62500
O1149       O  0.12345113  0.47424379  0.35015354    -0.75000
O1150       O  0.11626695  0.52103109  0.40556704    -0.73800
Cu1151     Cu  0.16042999  0.49806002  0.38345099     1.04600
Cu1152     Cu  0.11829454  0.49782364  0.37778160     1.04300
C1153       C  0.13502769  0.52890215  0.41628424     0.92500
C1154       C  0.14452176  0.46714133  0.34432666     0.91600
C1155       C  0.14395264  0.53511535  0.35217684     0.83800
C1156       C  0.13462943  0.46137742  0.41000062     0.90100
C1157       C  0.38249331  0.14452680  0.27956768     0.85700
C1158       C  0.37619407  0.12135137  0.26585997    -0.54500
C1159       C  0.35471615  0.12152059  0.25391101     0.08700
C1160       C  0.34102176  0.14547071  0.25716797     0.19600
C1161       C  0.38054947  0.16430989  0.26096866    -0.55200
C1162       C  0.35929950  0.16493303  0.24894163     0.08800
C1163       C  0.36041458  0.14765152  0.29609305    -0.54800
C1164       C  0.33863312  0.14846090  0.28473101     0.09300
H1165       H  0.38710186  0.10544894  0.26637237     0.13900
H1166       H  0.32349369  0.14633443  0.24791460    -0.00400
H1167       H  0.39528001  0.17659355  0.25707587     0.14200
H1168       H  0.36187098  0.14843443  0.31547086     0.13900
C1169       C  0.38334915  0.27278093  0.15921593     0.85700
C1170       C  0.37888062  0.25722411  0.18137169    -0.54500
C1171       C  0.36040540  0.24130917  0.17904160     0.08700
C1172       C  0.34623764  0.24394152  0.15510807     0.19600
C1173       C  0.38504137  0.25471859  0.13834831    -0.55200
C1174       C  0.36532660  0.24008409  0.13514489     0.08800
C1175       C  0.35908047  0.28547403  0.15631170    -0.54800
C1176       C  0.33971389  0.27066931  0.15352657     0.09300
H1177       H  0.38940484  0.25807784  0.19763712     0.13900
H1178       H  0.32996163  0.23265053  0.15360022    -0.00400
H1179       H  0.40131322  0.25321405  0.12785949     0.14200
H1180       H  0.35724383  0.30483868  0.15610191     0.13900
O1181       O  0.47044960  0.36774397  0.86798889    -0.73700
O1182       O  0.51522942  0.31278077  0.86360862    -0.74700
O1183       O  0.46512649  0.31805256  0.86314066    -0.63300
O1184       O  0.52105579  0.36269404  0.86865182    -0.71700
O1185       O  0.52017810  0.35939724  0.90822382    -0.71300
O1186       O  0.46374256  0.31384480  0.90205871    -0.62500
O1187       O  0.51495998  0.30886355  0.90312369    -0.75000
O1188       O  0.46886424  0.36401442  0.90752615    -0.73800
Cu1189     Cu  0.49302274  0.34045238  0.86457826     1.04600
Cu1190     Cu  0.49191854  0.33639027  0.90669761     1.04300
C1191       C  0.46191179  0.37405367  0.88824661     0.92500
C1192       C  0.52272936  0.30253517  0.88250626     0.91600
C1193       C  0.45512567  0.30882316  0.88144157     0.83800
C1194       C  0.52957017  0.36811496  0.88919385     0.90100
O1195       O  0.47250208  0.15735159  0.39991879    -0.73700
O1196       O  0.52793920  0.15895716  0.35399793    -0.74700
O1197       O  0.47700930  0.15971544  0.34989189    -0.63300
O1198       O  0.52372982  0.15670875  0.40474214    -0.71700
O1199       O  0.52425758  0.11703577  0.40155791    -0.71300
O1200       O  0.47396254  0.12011373  0.34949907    -0.62500
O1201       O  0.52555032  0.11941546  0.35039647    -0.75000
O1202       O  0.47332210  0.11791681  0.40022055    -0.73800
Cu1203     Cu  0.50037672  0.15953663  0.37717693     1.04600
Cu1204     Cu  0.49931480  0.11721821  0.37526268     1.04300
C1205       C  0.46404881  0.13750111  0.40758387     0.92500
C1206       C  0.53539278  0.13938394  0.34473725     0.91600
C1207       C  0.46714636  0.14056130  0.34188845     0.83800
C1208       C  0.53149118  0.13637008  0.41168565     0.90100
O1209       O  0.52844509  0.39620141  0.17263790    -0.73700
O1210       O  0.47367701  0.34969848  0.18206252    -0.74700
O1211       O  0.52488419  0.34599785  0.17501501    -0.63300
O1212       O  0.47764699  0.39999749  0.17964689    -0.71700
O1213       O  0.47268300  0.39793870  0.14029873    -0.71300
O1214       O  0.51984553  0.34444311  0.13564983    -0.62500
O1215       O  0.46980845  0.34803400  0.14261822    -0.75000
O1216       O  0.52357947  0.39424953  0.13334197    -0.73800
Cu1217     Cu  0.50139635  0.37303265  0.17877135     1.04600
Cu1218     Cu  0.49628828  0.37116311  0.13667509     1.04300
C1219       C  0.53508630  0.40205910  0.15150695     0.92500
C1220       C  0.46263343  0.34203588  0.16348086     0.91600
C1221       C  0.53022445  0.33709198  0.15455620     0.83800
C1222       C  0.46709651  0.40693241  0.16062288     0.90100
O1223       O  0.51155614  0.88460207  0.38096014    -0.73700
O1224       O  0.45651541  0.87983324  0.42654951    -0.74700
O1225       O  0.50736287  0.88057895  0.43122714    -0.63300
O1226       O  0.46144265  0.88293535  0.37552413    -0.71700
O1227       O  0.46089741  0.84363684  0.37267581    -0.71300
O1228       O  0.50822407  0.84098884  0.42744426    -0.62500
O1229       O  0.45705472  0.84018143  0.42366381    -0.75000
O1230       O  0.51187802  0.84498789  0.37688317    -0.73800
Cu1231     Cu  0.48406612  0.88332496  0.40368194     1.04600
Cu1232     Cu  0.48447409  0.84104262  0.40008921     1.04300
C1233       C  0.52051114  0.86565719  0.37186333     0.92500
C1234       C  0.44828918  0.85935511  0.43267742     0.91600
C1235       C  0.51555473  0.86023635  0.43769324     0.83800
C1236       C  0.45406803  0.86396297  0.36485190     0.90100
C1237       C  0.87326503  0.76543759  0.39628305     0.85700
C1238       C  0.86982951  0.74897543  0.41853182    -0.54500
C1239       C  0.84810326  0.73675064  0.41989077     0.08700
C1240       C  0.83221138  0.74172467  0.39742291     0.19600
C1241       C  0.86994127  0.74707730  0.37609462    -0.55200
C1242       C  0.84873853  0.73485292  0.37599189     0.08800
C1243       C  0.85084712  0.78127060  0.39598628    -0.54800
C1244       C  0.82938919  0.76940704  0.39636013     0.09300
H1245       H  0.88421823  0.74481319  0.43072676     0.13900
H1246       H  0.81450432  0.73279735  0.39703696    -0.00400
H1247       H  0.88421490  0.74279268  0.36351094     0.14200
H1248       H  0.85198112  0.80071724  0.39545910     0.13900
C1249       C  0.42474814  0.28698400  0.17566079    -0.02600
C1250       C  0.40498578  0.29030470  0.15999682     0.07100
C1251       C  0.40568859  0.31072679  0.14479580    -0.02700
C1252       C  0.42275435  0.32899112  0.14836601    -0.02700
C1253       C  0.44127730  0.32614823  0.16519815     0.07200
C1254       C  0.44118718  0.30576575  0.17994340    -0.02900
Br1255     Br  0.46286487  0.30325902  0.20659246    -0.01500
Br1256     Br  0.43515550  0.25528905  0.18457864    -0.01500
Br1257     Br  0.41951774  0.35895780  0.13117382    -0.01500
Br1258     Br  0.38667123  0.31273508  0.11609000    -0.01500
C1259       C  0.37278242  0.18164187  0.20945567    -0.02600
C1260       C  0.35627639  0.18211201  0.22875171     0.07100
C1261       C  0.34066744  0.20176963  0.23110236    -0.02700
C1262       C  0.34282409  0.22156140  0.21562186    -0.02700
C1263       C  0.35849795  0.22070390  0.19585540     0.07200
C1264       C  0.37431312  0.20106769  0.19348957    -0.02900
Br1265     Br  0.39956452  0.20137962  0.16963966    -0.01500
Br1266     Br  0.39320400  0.15410100  0.20453950    -0.01500
Br1267     Br  0.32850770  0.25156512  0.22470094    -0.01500
Br1268     Br  0.31673799  0.20220054  0.25590769    -0.01500
C1269       C  0.42661699  0.13005942  0.28748417    -0.02600
C1270       C  0.40688893  0.14532092  0.29298347     0.07100
C1271       C  0.41056569  0.16256791  0.31135722    -0.02700
C1272       C  0.42919369  0.15996730  0.32802979    -0.02700
C1273       C  0.44698582  0.14240073  0.32452225     0.07200
C1274       C  0.44598691  0.12792143  0.30373972    -0.02900
Br1275     Br  0.47187652  0.10605580  0.29672024    -0.01500
Br1276     Br  0.43136483  0.11748205  0.25548122    -0.01500
Br1277     Br  0.42869526  0.17960410  0.35670646    -0.01500
Br1278     Br  0.39325196  0.19234223  0.31163844    -0.01500
C1279       C  0.40484036  0.40719757  0.87370156    -0.02600
C1280       C  0.40756119  0.42800447  0.88780877     0.07100
C1281       C  0.42808581  0.43108487  0.90230467    -0.02700
C1282       C  0.44563308  0.41311924  0.90314331    -0.02700
C1283       C  0.44301833  0.39236313  0.88891309     0.07200
C1284       C  0.42238881  0.38925148  0.87452011    -0.02900
Br1285     Br  0.41711657  0.35957488  0.85728477    -0.01500
Br1286     Br  0.37683388  0.40287710  0.85372688    -0.01500
Br1287     Br  0.47343218  0.41734874  0.92335076    -0.01500
Br1288     Br  0.43311012  0.46075405  0.91967096    -0.01500
C1289       C  0.40912515  0.43782599  0.17878061    -0.02600
C1290       C  0.40900033  0.45766909  0.16307538     0.07100
C1291       C  0.42826398  0.46087279  0.14680434    -0.02700
C1292       C  0.44721443  0.44432983  0.14608939    -0.02700
C1293       C  0.44760302  0.42483555  0.16207252     0.07200
C1294       C  0.42841252  0.42158655  0.17836898    -0.02900
Br1295     Br  0.42725045  0.39367954  0.19879305    -0.01500
Br1296     Br  0.38210477  0.43148416  0.19973087    -0.01500
Br1297     Br  0.47282145  0.44879848  0.12318096    -0.01500
Br1298     Br  0.42969654  0.48846291  0.12592208    -0.01500
C1299       C  0.28101204  0.30229653  0.16191841    -0.02600
C1300       C  0.28288134  0.31932828  0.14320356     0.07100
C1301       C  0.29974826  0.31485362  0.12463314    -0.02700
C1302       C  0.31523346  0.29515005  0.12591012    -0.02700
C1303       C  0.31598215  0.28094232  0.14647027     0.07200
C1304       C  0.29681742  0.28255054  0.16272672    -0.02900
Br1305     Br  0.28833475  0.25475408  0.18101521    -0.01500
Br1306     Br  0.25711258  0.30525999  0.18659181    -0.01500
Br1307     Br  0.33352140  0.28539806  0.09837963    -0.01500
Br1308     Br  0.30444615  0.33652506  0.09838001    -0.01500
C1309       C  0.30597499  0.40407519  0.15110188    -0.02600
C1310       C  0.28100499  0.40442834  0.15506755     0.07100
C1311       C  0.27008635  0.42617647  0.16228731    -0.02700
C1312       C  0.28407052  0.44707216  0.16567738    -0.02700
C1313       C  0.30852325  0.44716122  0.15933708     0.07200
C1314       C  0.31936335  0.42560232  0.15169768    -0.02900
Br1315     Br  0.35226989  0.42557829  0.14084729    -0.01500
Br1316     Br  0.32195746  0.37428106  0.14466920    -0.01500
Br1317     Br  0.26950384  0.47594194  0.17785352    -0.01500
Br1318     Br  0.23577639  0.42786875  0.16666948    -0.01500
C1319       C  0.21293786  0.36387015  0.23090097    -0.02600
C1320       C  0.18944854  0.35382801  0.22946549     0.07100
C1321       C  0.18400503  0.34035648  0.20832068    -0.02700
C1322       C  0.20081946  0.33916715  0.18929779    -0.02700
C1323       C  0.22119639  0.35453251  0.18883817     0.07200
C1324       C  0.22746560  0.36645801  0.21028053    -0.02900
Br1325     Br  0.25484861  0.38766385  0.21203261    -0.01500
Br1326     Br  0.22726386  0.37079460  0.26151515    -0.01500
Br1327     Br  0.19641923  0.31525585  0.16426129    -0.01500
Br1328     Br  0.15377216  0.32410612  0.20285766    -0.01500
C1329       C  0.13244636  0.44568673  0.30559503    -0.02600
C1330       C  0.14830186  0.44828734  0.32530868     0.07100
C1331       C  0.16855990  0.43285757  0.32619108    -0.02700
C1332       C  0.17029903  0.41312527  0.31035945    -0.02700
C1333       C  0.15224771  0.40850458  0.29307535     0.07200
C1334       C  0.13610102  0.42743409  0.28839282    -0.02900
Br1335     Br  0.12516020  0.43329143  0.25604636    -0.01500
Br1336     Br  0.10594466  0.46714641  0.30074557    -0.01500
Br1337     Br  0.19897080  0.39403952  0.31126250    -0.01500
Br1338     Br  0.19442487  0.43749921  0.34906832    -0.01500
C1339       C  0.83849508  0.40273617  0.44075419    -0.02600
C1340       C  0.84989636  0.40730304  0.46291455     0.07100
C1341       C  0.86031835  0.43003013  0.46731997    -0.02700
C1342       C  0.85802673  0.44845213  0.45034780    -0.02700
C1343       C  0.84608436  0.44406443  0.42848267     0.07200
C1344       C  0.83686317  0.42100349  0.42347350    -0.02900
Br1345     Br  0.82377678  0.41393059  0.39221253    -0.01500
Br1346     Br  0.82674019  0.37093500  0.43323199    -0.01500
Br1347     Br  0.87085432  0.47997345  0.45739790    -0.01500
Br1348     Br  0.87767121  0.43624116  0.49664510    -0.01500
C1349       C  0.41382437  0.11380044  0.44808241    -0.02600
C1350       C  0.40954928  0.13355793  0.46369895     0.07100
C1351       C  0.42286753  0.15509035  0.45985318    -0.02700
C1352       C  0.43959308  0.15689844  0.44089613    -0.02700
C1353       C  0.44393646  0.13704568  0.42554666     0.07200
C1354       C  0.42973318  0.11608313  0.42846979    -0.02900
Br1355     Br  0.42975026  0.09100085  0.40426188    -0.01500
Br1356     Br  0.39943937  0.08258149  0.45336148    -0.01500
Br1357     Br  0.45606668  0.18736623  0.43660654    -0.01500
Br1358     Br  0.42062590  0.18224244  0.48161865    -0.01500
C1359       C  0.12014990  0.42436560  0.46488651    -0.02600
C1360       C  0.13093653  0.40232826  0.45871374     0.07100
C1361       C  0.14179714  0.39946356  0.43606326    -0.02700
C1362       C  0.14142620  0.41840025  0.41957878    -0.02700
C1363       C  0.13231724  0.44090068  0.42638085     0.07200
C1364       C  0.12146755  0.44384457  0.44899097    -0.02900
Br1365     Br  0.10896025  0.47470179  0.45838135    -0.01500
Br1366     Br  0.10419697  0.42822147  0.49538170    -0.01500
Br1367     Br  0.15116559  0.41283333  0.38697720    -0.01500
Br1368     Br  0.15668481  0.36950369  0.42720976    -0.01500
C1369       C  0.40804455  0.87202238  0.44862346    -0.02600
C1370       C  0.42889572  0.85788044  0.45081301     0.07100
C1371       C  0.43158660  0.84286370  0.47091521    -0.02700
C1372       C  0.41342969  0.84165669  0.48844713    -0.02700
C1373       C  0.39247444  0.85555304  0.48610669     0.07200
C1374       C  0.38980030  0.87069063  0.46609887    -0.02900
Br1375     Br  0.36065433  0.88886196  0.46191920    -0.01500
Br1376     Br  0.40402469  0.89294656  0.42145114    -0.01500
Br1377     Br  0.41816358  0.82206247  0.51650826    -0.01500
Br1378     Br  0.46106060  0.82539632  0.47569071    -0.01500
C1379       C  0.27935254  0.13042123  0.31540208    -0.02600
C1380       C  0.27922067  0.14649470  0.33501713     0.07100
C1381       C  0.29533792  0.16618693  0.33474408    -0.02700
C1382       C  0.31296180  0.16814914  0.31668533    -0.02700
C1383       C  0.31551498  0.15009411  0.29896150     0.07200
C1384       C  0.29742116  0.13211100  0.29754829    -0.02900
Br1385     Br  0.29737268  0.10864150  0.27222921    -0.01500
Br1386     Br  0.25600033  0.10477505  0.31364685    -0.01500
Br1387     Br  0.33296927  0.19637229  0.31615261    -0.01500
Br1388     Br  0.29367245  0.19071517  0.35938027    -0.01500
C1389       C  0.26738562  0.14362970  0.44614815    -0.02600
C1390       C  0.27367464  0.13234925  0.42406307     0.07100
C1391       C  0.29479465  0.11799802  0.42402012    -0.02700
C1392       C  0.31096323  0.11877373  0.44335223    -0.02700
C1393       C  0.30618178  0.13290274  0.46374774     0.07200
C1394       C  0.28430492  0.14546596  0.46498637    -0.02900
Br1395     Br  0.27698885  0.16482800  0.49278978    -0.01500
Br1396     Br  0.23435684  0.15015624  0.45433827    -0.01500
Br1397     Br  0.34101031  0.10188239  0.44062966    -0.01500
Br1398     Br  0.30208028  0.09588930  0.39822567    -0.01500
C1399       C  0.18828325  0.20790194  0.35598976    -0.02600
C1400       C  0.16756586  0.20449174  0.37033278     0.07100
C1401       C  0.16699754  0.18493354  0.38649103    -0.02700
C1402       C  0.18706228  0.16977823  0.38878815    -0.02700
C1403       C  0.20759995  0.17305972  0.37417960     0.07200
C1404       C  0.20766577  0.19166651  0.35718176    -0.02900
Br1405     Br  0.23392368  0.19459365  0.33487562    -0.01500
Br1406     Br  0.19029445  0.23439377  0.33406971    -0.01500
Br1407     Br  0.18545270  0.14320057  0.41086781    -0.01500
Br1408     Br  0.13888624  0.17853582  0.40599939    -0.01500
C1409       C  0.14274144  0.29438526  0.29168353    -0.02600
C1410       C  0.15284004  0.31652791  0.30017113     0.07100
C1411       C  0.16197757  0.31624653  0.32409068    -0.02700
C1412       C  0.15513014  0.29804145  0.34039225    -0.02700
C1413       C  0.14387395  0.27686152  0.33189894     0.07200
C1414       C  0.14140543  0.27430568  0.30691369    -0.02900
Br1415     Br  0.13858736  0.24258738  0.29303294    -0.01500
Br1416     Br  0.12795706  0.28929974  0.26081522    -0.01500
Br1417     Br  0.16122699  0.30354734  0.37396694    -0.01500
Br1418     Br  0.18699946  0.33805567  0.33439232    -0.01500
C1419       C  0.14179747  0.26259330  0.43079273    -0.02600
C1420       C  0.12705033  0.26776195  0.41102734     0.07100
C1421       C  0.11395802  0.28941769  0.41080298    -0.02700
C1422       C  0.11480087  0.30515468  0.43057396    -0.02700
C1423       C  0.12891240  0.29953887  0.45074002     0.07200
C1424       C  0.14297282  0.27853561  0.45045338    -0.02900
Br1425     Br  0.16347258  0.27110010  0.47724385    -0.01500
Br1426     Br  0.15990540  0.23335780  0.43141622    -0.01500
Br1427     Br  0.09789066  0.33530470  0.42909756    -0.01500
Br1428     Br  0.09620578  0.29867388  0.38264702    -0.01500
C1429       C  0.25662798  0.86773814  0.46208439    -0.02600
C1430       C  0.26578230  0.85795804  0.44035689     0.07100
C1431       C  0.28621464  0.84273504  0.44222866    -0.02700
C1432       C  0.30020305  0.84266815  0.46312133    -0.02700
C1433       C  0.29267791  0.85534093  0.48361486     0.07200
C1434       C  0.27063421  0.86754635  0.48319584    -0.02900
Br1435     Br  0.25918037  0.88326644  0.51186030    -0.01500
Br1436     Br  0.22317101  0.87569073  0.46533233    -0.01500
Br1437     Br  0.33083599  0.82634303  0.46277704    -0.01500
Br1438     Br  0.29424472  0.81912419  0.41800963    -0.01500
C1439       C  0.17813643  0.07677578  0.35087148    -0.02600
C1440       C  0.18470429  0.05376925  0.35849029     0.07100
C1441       C  0.20824683  0.04960277  0.36605604    -0.02700
C1442       C  0.22477521  0.06877489  0.36768041    -0.02700
C1443       C  0.21743468  0.09284289  0.36350282     0.07200
C1444       C  0.19418828  0.09634162  0.35347018    -0.02900
Br1445     Br  0.18275651  0.12717433  0.34329943    -0.01500
Br1446     Br  0.14653435  0.08140287  0.33745960    -0.01500
Br1447     Br  0.25786418  0.06097319  0.37343087    -0.01500
Br1448     Br  0.21769040  0.01728749  0.37396033    -0.01500
C1449       C  0.20010893  0.94099661  0.35772413    -0.02600
C1450       C  0.17974690  0.94527346  0.37228764     0.07100
C1451       C  0.17454935  0.92905276  0.39107637    -0.02700
C1452       C  0.19011353  0.90980120  0.39601217    -0.02700
C1453       C  0.21153280  0.90664955  0.38275149     0.07200
C1454       C  0.21603305  0.92209024  0.36314683    -0.02900
Br1455     Br  0.24417142  0.91821195  0.34361740    -0.01500
Br1456     Br  0.20676808  0.96117336  0.33037722    -0.01500
Br1457     Br  0.18057955  0.88627401  0.41951180    -0.01500
Br1458     Br  0.14500229  0.93175330  0.40916231    -0.01500
C1459       C  0.85302002  0.26656052  0.44139914    -0.02600
C1460       C  0.86231960  0.27469604  0.41911831     0.07100
C1461       C  0.87625665  0.29615647  0.41929468    -0.02700
C1462       C  0.87493509  0.31200796  0.43891497    -0.02700
C1463       C  0.86158795  0.30557995  0.45936739     0.07200
C1464       C  0.85141362  0.28250085  0.46092470    -0.02900
Br1465     Br  0.83580446  0.27243425  0.49020799    -0.01500
Br1466     Br  0.84813282  0.23282421  0.44784427    -0.01500
Br1467     Br  0.88971665  0.34336586  0.43673648    -0.01500
Br1468     Br  0.89879377  0.30341158  0.39380375    -0.01500
C1469       C  0.07994890  0.07438075  0.36598121    -0.02600
C1470       C  0.08045379  0.05354369  0.35143646     0.07100
C1471       C  0.06187512  0.04976467  0.33449710    -0.02700
C1472       C  0.04256483  0.06599474  0.33293545    -0.02700
C1473       C  0.04192603  0.08658787  0.34772929     0.07200
C1474       C  0.06108109  0.09097265  0.36381460    -0.02900
Br1475     Br  0.06240607  0.12043619  0.38224471    -0.01500
Br1476     Br  0.10545638  0.08099232  0.38860140    -0.01500
Br1477     Br  0.01611642  0.05885108  0.31165435    -0.01500
Br1478     Br  0.06166735  0.02157330  0.31422011    -0.01500
C1479       C  0.03547238  0.20857307  0.35716137    -0.02600
C1480       C  0.03743728  0.18696817  0.34434458     0.07100
C1481       C  0.05878407  0.18193585  0.33192872    -0.02700
C1482       C  0.07891566  0.19707976  0.33462906    -0.02700
C1483       C  0.07887788  0.21587783  0.35208675     0.07200
C1484       C  0.05594115  0.22320815  0.36092134    -0.02900
Br1485     Br  0.05052697  0.25448372  0.37473952    -0.01500
Br1486     Br  0.00407373  0.21856386  0.36809431    -0.01500
Br1487     Br  0.10521108  0.19256472  0.31242422    -0.01500
Br1488     Br  0.06108099  0.15339107  0.31224916    -0.01500
C1489       C  0.91083840  0.17723031  0.36623068    -0.02600
C1490       C  0.92927427  0.18213265  0.34951782     0.07100
C1491       C  0.92936820  0.20411513  0.33709274    -0.02700
C1492       C  0.91167218  0.22147116  0.34213062    -0.02700
C1493       C  0.89305069  0.21637372  0.35857071     0.07200
C1494       C  0.89317142  0.19442662  0.37109765    -0.02900
Br1495     Br  0.87033372  0.18845956  0.39662918    -0.01500
Br1496     Br  0.90965568  0.14688711  0.38289414    -0.01500
Br1497     Br  0.91534457  0.25344501  0.32960593    -0.01500
Br1498     Br  0.95495554  0.21140840  0.31484549    -0.01500
C1499       C  0.93399190  0.80060572  0.40691122    -0.02600
C1500       C  0.93857507  0.81085722  0.38419062     0.07100
C1501       C  0.92213651  0.80586911  0.36548464    -0.02700
C1502       C  0.90163557  0.79126950  0.36951958    -0.02700
C1503       C  0.89654607  0.78110844  0.39260157     0.07200
C1504       C  0.91241406  0.78782781  0.41152913    -0.02900
Br1505     Br  0.90328946  0.78590022  0.44470332    -0.01500
Br1506     Br  0.95766098  0.80301217  0.43224005    -0.01500
Br1507     Br  0.88004822  0.78764754  0.34252535    -0.01500
Br1508     Br  0.92649281  0.81970042  0.33383000    -0.01500
C1509       C  0.06314676  0.91122560  0.35575385    -0.02600
C1510       C  0.04025358  0.91778642  0.36427222     0.07100
C1511       C  0.03588069  0.94161007  0.37147857    -0.02700
C1512       C  0.05465248  0.95861068  0.37114150    -0.02700
C1513       C  0.07776964  0.95177886  0.36346152     0.07200
C1514       C  0.08200700  0.92807787  0.35581564    -0.02900
Br1515     Br  0.11409861  0.91820511  0.34723201    -0.01500
Br1516     Br  0.06888579  0.87898152  0.34449371    -0.01500
Br1517     Br  0.04862417  0.99130796  0.38086869    -0.01500
Br1518     Br  0.00391678  0.95115450  0.38069426    -0.01500
C1519       C  0.89247563  0.06878636  0.34271995    -0.02600
C1520       C  0.89628060  0.04804836  0.35656964     0.07100
C1521       C  0.91895392  0.04396891  0.36693321    -0.02700
C1522       C  0.93771998  0.06054537  0.36362677    -0.02700
C1523       C  0.93378805  0.08163712  0.35048382     0.07200
C1524       C  0.91112674  0.08576980  0.34000501    -0.02900
Br1525     Br  0.90503891  0.11547762  0.32347089    -0.01500
Br1526     Br  0.86143054  0.07467833  0.32863381    -0.01500
Br1527     Br  0.96912117  0.05391474  0.37653779    -0.01500
Br1528     Br  0.92462824  0.01529609  0.38536143    -0.01500
C1529       C  0.91628471  0.94796984  0.35336238    -0.02600
C1530       C  0.89775469  0.94687314  0.37066600     0.07100
C1531       C  0.89806732  0.92857710  0.38811631    -0.02700
C1532       C  0.91579232  0.91070037  0.38721719    -0.02700
C1533       C  0.93464775  0.91214486  0.37035199     0.07200
C1534       C  0.93488300  0.93092874  0.35347487    -0.02900
Br1535     Br  0.96130989  0.93428268  0.33125795    -0.01500
Br1536     Br  0.91743845  0.97399189  0.33061348    -0.01500
Br1537     Br  0.91313995  0.88316361  0.40800582    -0.01500
Br1538     Br  0.87446703  0.92769917  0.41354801    -0.01500
C1539       C  0.29169524  0.14069132  0.61106487    -0.02600
C1540       C  0.26896431  0.13024812  0.60577153     0.07100
C1541       C  0.26388779  0.12439915  0.58154219    -0.02700
C1542       C  0.28231152  0.12371699  0.56434562    -0.02700
C1543       C  0.30530047  0.13243309  0.57007312     0.07200
C1544       C  0.30951723  0.14228183  0.59300391    -0.02900
Br1545     Br  0.34022856  0.15702582  0.59992868    -0.01500
Br1546     Br  0.29941365  0.15308401  0.64239242    -0.01500
Br1547     Br  0.27586068  0.11084457  0.53279996    -0.01500
Br1548     Br  0.23122317  0.11961254  0.57101962    -0.01500
C1549       C  0.05806666  0.02516370  0.64085826    -0.02600
C1550       C  0.07949723  0.03022703  0.65348457     0.07100
C1551       C  0.08206149  0.05259063  0.66525842    -0.02700
C1552       C  0.06307590  0.06924093  0.66520729    -0.02700
C1553       C  0.04162693  0.06413556  0.65262589     0.07200
C1554       C  0.03959367  0.04236068  0.63976204    -0.02900
Br1555     Br  0.01114287  0.03558396  0.62117622    -0.01500
Br1556     Br  0.05285745  0.99383367  0.62684222    -0.01500
Br1557     Br  0.06713209  0.09966878  0.68145607    -0.01500
Br1558     Br  0.11202749  0.06105385  0.68066316    -0.01500
C1559       C  0.17613979  0.04535047  0.62868972    -0.02600
C1560       C  0.18249248  0.02762809  0.64536336     0.07100
C1561       C  0.20562558  0.02766629  0.65527193    -0.02700
C1562       C  0.22112644  0.04714907  0.65096670    -0.02700
C1563       C  0.21238608  0.06781156  0.63907456     0.07200
C1564       C  0.19145670  0.06501881  0.62490970    -0.02900
Br1565     Br  0.18424489  0.08665210  0.59900811    -0.01500
Br1566     Br  0.14571705  0.04373529  0.61208460    -0.01500
Br1567     Br  0.25497233  0.04283355  0.65687070    -0.01500
Br1568     Br  0.21632625  0.00060298  0.67380345    -0.01500
C1569       C  0.21534339  0.90032463  0.66053334    -0.02600
C1570       C  0.21235845  0.88568651  0.68101626     0.07100
C1571       C  0.19180186  0.88890131  0.69554974    -0.02700
C1572       C  0.17525203  0.90717278  0.69041058    -0.02700
C1573       C  0.17905157  0.92255956  0.67071562     0.07200
C1574       C  0.19875246  0.91857674  0.65537459    -0.02900
Br1575     Br  0.20334232  0.93828559  0.62727943    -0.01500
Br1576     Br  0.24210271  0.89609004  0.63920779    -0.01500
Br1577     Br  0.14600171  0.90942063  0.70902860    -0.01500
Br1578     Br  0.18453821  0.86655948  0.72089625    -0.01500
C1579       C  0.26531601  0.83041916  0.62177386    -0.02600
C1580       C  0.27225637  0.84443112  0.64176238     0.07100
C1581       C  0.29139714  0.86118111  0.63929793    -0.02700
C1582       C  0.30347660  0.86347040  0.61726895    -0.02700
C1583       C  0.29589396  0.84998888  0.59713289     0.07200
C1584       C  0.27649765  0.83381674  0.59941015    -0.02900
Br1585     Br  0.26439195  0.81699668  0.57159626    -0.01500
Br1586     Br  0.24197125  0.80495783  0.62501589    -0.01500
Br1587     Br  0.33138570  0.88429595  0.61543974    -0.01500
Br1588     Br  0.30065194  0.88244560  0.66532667    -0.01500
C1589       C  0.89085710  0.05702734  0.64310601    -0.02600
C1590       C  0.89437368  0.03434987  0.65355982     0.07100
C1591       C  0.91691848  0.02875704  0.66348454    -0.02700
C1592       C  0.93586689  0.04558209  0.66287639    -0.02700
C1593       C  0.93260086  0.06817037  0.65215957     0.07200
C1594       C  0.90981668  0.07401070  0.64273271    -0.02900
Br1595     Br  0.90374039  0.10592749  0.63148385    -0.01500
Br1596     Br  0.85974027  0.06517879  0.63035773    -0.01500
Br1597     Br  0.96651609  0.03746584  0.67665895    -0.01500
Br1598     Br  0.92226130  0.99747357  0.67710275    -0.01500
C1599       C  0.03675930  0.91866283  0.68247610    -0.02600
C1600       C  0.03869774  0.89680178  0.66976896     0.07100
C1601       C  0.06066296  0.89027837  0.65904130    -0.02700
C1602       C  0.08037585  0.90593339  0.66035271    -0.02700
C1603       C  0.07797199  0.92840721  0.67174348     0.07200
C1604       C  0.05635526  0.93460243  0.68322906    -0.02900
Br1605     Br  0.05292101  0.96559844  0.69839980    -0.01500
Br1606     Br  0.00686195  0.92762529  0.69760053    -0.01500
Br1607     Br  0.11095995  0.89627345  0.64701814    -0.01500
Br1608     Br  0.06423513  0.85960621  0.64314964    -0.01500
C1609       C  0.93177096  0.91533350  0.64112119    -0.02600
C1610       C  0.93063988  0.89674935  0.65826718     0.07100
C1611       C  0.90963769  0.89385465  0.67216498    -0.02700
C1612       C  0.89118839  0.91087969  0.67103708    -0.02700
C1613       C  0.89314558  0.93053530  0.65533424     0.07200
C1614       C  0.91293702  0.93208792  0.63953951    -0.02900
Br1615     Br  0.91479910  0.95759293  0.61629369    -0.01500
Br1616     Br  0.95924754  0.91848400  0.62017542    -0.01500
Br1617     Br  0.86252447  0.90638144  0.69015785    -0.01500
Br1618     Br  0.90501574  0.86532842  0.69119789    -0.01500
C1619       C  0.91190862  0.19969808  0.67022687    -0.02600
C1620       C  0.89753215  0.20188317  0.64950876     0.07100
C1621       C  0.90315569  0.18764870  0.62915649    -0.02700
C1622       C  0.92310317  0.17218599  0.62925938    -0.02700
C1623       C  0.93777005  0.17019302  0.65000938     0.07200
C1624       C  0.93243756  0.18490968  0.67008955    -0.02900
Br1625     Br  0.95450796  0.18731091  0.69675834    -0.01500
Br1626     Br  0.90384622  0.21643148  0.69938790    -0.01500
Br1627     Br  0.92956959  0.15433637  0.60004231    -0.01500
Br1628     Br  0.88208839  0.18715933  0.60141284    -0.01500
C1629       C  0.87596705  0.29216435  0.57521393    -0.02600
C1630       C  0.85453789  0.30378144  0.56837976     0.07100
C1631       C  0.83435307  0.30165321  0.58374289    -0.02700
C1632       C  0.83434776  0.28502584  0.60281670    -0.02700
C1633       C  0.85521031  0.27152239  0.60828010     0.07200
C1634       C  0.87678713  0.27880974  0.59655029    -0.02900
Br1635     Br  0.90740697  0.27893096  0.61297393    -0.01500
Br1636     Br  0.90506071  0.29444752  0.55630883    -0.01500
Br1637     Br  0.80651175  0.28415686  0.62325384    -0.01500
Br1638     Br  0.80779598  0.32387509  0.58126490    -0.01500
C1639       C  0.18980489  0.19940261  0.64051464    -0.02600
C1640       C  0.16625894  0.19687806  0.65025352     0.07100
C1641       C  0.16086529  0.17484676  0.66204380    -0.02700
C1642       C  0.17825183  0.15643169  0.66339072    -0.02700
C1643       C  0.19979553  0.15766298  0.64973051     0.07200
C1644       C  0.20514564  0.17944237  0.63803688    -0.02900
Br1645     Br  0.23190393  0.18199051  0.61614474    -0.01500
Br1646     Br  0.20291640  0.23049405  0.63243979    -0.01500
Br1647     Br  0.17247795  0.13000424  0.68523756    -0.01500
Br1648     Br  0.12971879  0.16754525  0.67545009    -0.01500
C1649       C  0.06993042  0.19796548  0.67082507    -0.02600
C1650       C  0.08546461  0.19832014  0.65076911     0.07100
C1651       C  0.08385885  0.17924283  0.63407393    -0.02700
C1652       C  0.06533032  0.16198086  0.63579929    -0.02700
C1653       C  0.04719749  0.16424347  0.65346092     0.07200
C1654       C  0.05018145  0.18190714  0.67158320    -0.02900
Br1655     Br  0.02711835  0.18514471  0.69734310    -0.01500
Br1656     Br  0.07658348  0.21742690  0.69852255    -0.01500
Br1657     Br  0.06650331  0.13395765  0.61527708    -0.01500
Br1658     Br  0.10884478  0.17490018  0.61042265    -0.01500
C1659       C  0.11710690  0.25639490  0.57690052    -0.02600
C1660       C  0.12907009  0.26196910  0.59871098     0.07100
C1661       C  0.14511640  0.28207809  0.59840588    -0.02700
C1662       C  0.14441883  0.29887539  0.57966340    -0.02700
C1663       C  0.12953863  0.29492702  0.55966246     0.07200
C1664       C  0.11635512  0.27331542  0.55807305    -0.02900
Br1665     Br  0.09853681  0.26608142  0.52926995    -0.01500
Br1666     Br  0.10752293  0.22395630  0.56950702    -0.01500
Br1667     Br  0.16328972  0.32808751  0.58218559    -0.01500
Br1668     Br  0.17040546  0.28611735  0.62191833    -0.01500
C1669       C  0.26507582  0.41686735  0.86834904    -0.02600
C1670       C  0.26982209  0.39312263  0.87623650     0.07100
C1671       C  0.29182706  0.38938727  0.88885128    -0.02700
C1672       C  0.30760491  0.40880140  0.89352131    -0.02700
C1673       C  0.30398418  0.43114919  0.88249966     0.07200
C1674       C  0.28311967  0.43465287  0.86891177    -0.02900
Br1675     Br  0.27896953  0.46374875  0.85080276    -0.01500
Br1676     Br  0.23308510  0.42733768  0.86082364    -0.01500
Br1677     Br  0.33533500  0.40420835  0.91390880    -0.01500
Br1678     Br  0.30303940  0.35830349  0.89872342    -0.01500
C1679       C  0.17918691  0.37544646  0.08472915    -0.02600
C1680       C  0.18446568  0.36135462  0.06449886     0.07100
C1681       C  0.20832883  0.35484925  0.05965057    -0.02700
C1682       C  0.22617778  0.35952160  0.07677155    -0.02700
C1683       C  0.21980176  0.36890474  0.09949027     0.07200
C1684       C  0.19729805  0.38050347  0.10142146    -0.02900
Br1685     Br  0.19202288  0.40575247  0.12455073    -0.01500
Br1686     Br  0.14690458  0.38656338  0.09052558    -0.01500
Br1687     Br  0.25910489  0.35870361  0.06660805    -0.01500
Br1688     Br  0.21674302  0.34073279  0.02908524    -0.01500
C1689       C  0.19840588  0.36679335  0.95514894    -0.02600
C1690       C  0.18115519  0.34861414  0.95915269     0.07100
C1691       C  0.17811455  0.33018166  0.94195253    -0.02700
C1692       C  0.19135315  0.33048261  0.92052642    -0.02700
C1693       C  0.20834057  0.34897891  0.91611504     0.07200
C1694       C  0.21215834  0.36684022  0.93383192    -0.02900
Br1695     Br  0.23508403  0.39235061  0.92867501    -0.01500
Br1696     Br  0.20356573  0.39139725  0.97906987    -0.01500
Br1697     Br  0.18534703  0.30525668  0.89723284    -0.01500
Br1698     Br  0.15454241  0.30488303  0.94664854    -0.01500
C1699       C  0.85119230  0.29557395  0.28980670    -0.02600
C1700       C  0.84539700  0.31946231  0.29617741     0.07100
C1701       C  0.83358756  0.32346245  0.31822732    -0.02700
C1702       C  0.83000855  0.30428206  0.33411700    -0.02700
C1703       C  0.84239048  0.28234684  0.33071182     0.07200
C1704       C  0.85110726  0.27734183  0.30726295    -0.02900
Br1705     Br  0.86312895  0.24648799  0.29738129    -0.01500
Br1706     Br  0.85867821  0.28754608  0.25678372    -0.01500
Br1707     Br  0.80656619  0.30783888  0.35950876    -0.01500
Br1708     Br  0.82421553  0.35499396  0.32881655    -0.01500
C1709       C  0.83055261  0.41917833  0.29478214    -0.02600
C1710       C  0.84881348  0.40214686  0.29810238     0.07100
C1711       C  0.86487301  0.40500476  0.31747385    -0.02700
C1712       C  0.86453091  0.42588625  0.33164178    -0.02700
C1713       C  0.84678094  0.44359594  0.32792612     0.07200
C1714       C  0.82936142  0.43972926  0.30973390    -0.02900
Br1715     Br  0.80481484  0.46326372  0.30374816    -0.01500
Br1716     Br  0.80762419  0.41476546  0.26930514    -0.01500
Br1717     Br  0.88877512  0.42935802  0.35625868    -0.01500
Br1718     Br  0.88710836  0.37961854  0.32532276    -0.01500
C1719       C  0.08796722  0.32542294  0.09009493    -0.02600
C1720       C  0.08210394  0.33745725  0.06861698     0.07100
C1721       C  0.05901357  0.34735484  0.06609839    -0.02700
C1722       C  0.04315551  0.34803597  0.08578583    -0.02700
C1723       C  0.04979288  0.33771113  0.10786151     0.07200
C1724       C  0.07175227  0.32540432  0.10957239    -0.02900
Br1725     Br  0.08024251  0.30957006  0.13902992    -0.01500
Br1726     Br  0.11850052  0.30956886  0.09347976    -0.01500
Br1727     Br  0.01198890  0.36259779  0.08213193    -0.01500
Br1728     Br  0.04830362  0.35802669  0.03506079    -0.01500
C1729       C  0.06414894  0.33915646  0.23352137    -0.02600
C1730       C  0.06329417  0.34992759  0.21062219     0.07100
C1731       C  0.08404790  0.36185907  0.20198916    -0.02700
C1732       C  0.10505243  0.36325080  0.21604245    -0.02700
C1733       C  0.10619614  0.35185120  0.23855773     0.07200
C1734       C  0.08528276  0.34055587  0.24758575    -0.02900
Br1735     Br  0.08451283  0.32979167  0.28040374    -0.01500
Br1736     Br  0.03580974  0.32416669  0.24664215    -0.01500
Br1737     Br  0.13148416  0.38320022  0.20538491    -0.01500
Br1738     Br  0.08422500  0.37613459  0.17052164    -0.01500
C1739       C  0.94724721  0.34415731  0.23682477    -0.02600
C1740       C  0.95118651  0.35886644  0.21662477     0.07100
C1741       C  0.93529291  0.37830107  0.21296289    -0.02700
C1742       C  0.91367105  0.37977669  0.22607149    -0.02700
C1743       C  0.90784711  0.36241838  0.24369103     0.07200
C1744       C  0.92697341  0.34774015  0.25159937    -0.02900
Br1745     Br  0.93061160  0.34031323  0.28522710    -0.01500
Br1746     Br  0.97050411  0.32051140  0.24609476    -0.01500
Br1747     Br  0.89395112  0.40767564  0.22152152    -0.01500
Br1748     Br  0.94261004  0.40380498  0.19066006    -0.01500
C1749       C  0.04816659  0.31196990  0.94686494    -0.02600
C1750       C  0.04907306  0.32675006  0.92639581     0.07100
C1751       C  0.06848144  0.34285544  0.92321992    -0.02700
C1752       C  0.08648253  0.34458388  0.94070535    -0.02700
C1753       C  0.08481142  0.33078513  0.96176152     0.07200
C1754       C  0.06613873  0.31387330  0.96443761    -0.02900
Br1755     Br  0.06435433  0.29421592  0.99279545    -0.01500
Br1756     Br  0.02120282  0.29070426  0.95220336    -0.01500
Br1757     Br  0.11408173  0.36508625  0.93519277    -0.01500
Br1758     Br  0.07074848  0.36262595  0.89489762    -0.01500
C1759       C  0.93543112  0.32084121  0.07816866    -0.02600
C1760       C  0.91469473  0.33528445  0.07801644     0.07100
C1761       C  0.91212519  0.35341357  0.09556693    -0.02700
C1762       C  0.93012328  0.35720811  0.11289955    -0.02700
C1763       C  0.95032409  0.34204240  0.11389618     0.07200
C1764       C  0.95302194  0.32403899  0.09611881    -0.02900
Br1765     Br  0.98187387  0.30492130  0.09490167    -0.01500
Br1766     Br  0.94075453  0.29778235  0.05283635    -0.01500
Br1767     Br  0.92662956  0.38344557  0.13498628    -0.01500
Br1768     Br  0.88326839  0.37261470  0.09671520    -0.01500
C1769       C  0.92524104  0.30962104  0.93215087    -0.02600
C1770       C  0.94683092  0.32291584  0.93340131     0.07100
C1771       C  0.95316914  0.33496112  0.95474325    -0.02700
C1772       C  0.93761918  0.33433469  0.97454192    -0.02700
C1773       C  0.91538023  0.32234177  0.97281553     0.07200
C1774       C  0.90948929  0.30933891  0.95187348    -0.02900
Br1775     Br  0.87934866  0.29211914  0.94962156    -0.01500
Br1776     Br  0.91637034  0.29322197  0.90289401    -0.01500
Br1777     Br  0.94729070  0.34886862  0.00448656    -0.01500
Br1778     Br  0.98339098  0.35201055  0.95713823    -0.01500
C1779       C  0.26521597  0.57907276  0.15179779    -0.02600
C1780       C  0.27326924  0.60188347  0.16065190     0.07100
C1781       C  0.29583543  0.60259833  0.17272064    -0.02700
C1782       C  0.30963968  0.58154436  0.17534124    -0.02700
C1783       C  0.30257497  0.55994977  0.16416292     0.07200
C1784       C  0.28045219  0.55888526  0.15219877    -0.02900
Br1785     Br  0.27083741  0.52933148  0.13663239    -0.01500
Br1786     Br  0.23260623  0.57363291  0.14101279    -0.01500
Br1787     Br  0.33930412  0.58259578  0.19335359    -0.01500
Br1788     Br  0.31006889  0.63195382  0.18453637    -0.01500
C1789       C  0.06291593  0.66715371  0.07380499    -0.02600
C1790       C  0.08311575  0.65210618  0.07555179     0.07100
C1791       C  0.08798260  0.64040034  0.09743427    -0.02700
C1792       C  0.07254489  0.64334857  0.11716693    -0.02700
C1793       C  0.05215817  0.65807592  0.11533726     0.07200
C1794       C  0.04732114  0.66990971  0.09356451    -0.02900
Br1795     Br  0.01824309  0.68822147  0.09000335    -0.01500
Br1796     Br  0.05572110  0.68291262  0.04395339    -0.01500
Br1797     Br  0.07961973  0.62726319  0.14692533    -0.01500
Br1798     Br  0.11639240  0.62094447  0.10110855    -0.01500
C1799       C  0.20457656  0.63798582  0.07179837    -0.02600
C1800       C  0.18258832  0.65004243  0.07367709     0.07100
C1801       C  0.17879958  0.66664306  0.09234555    -0.02700
C1802       C  0.19609197  0.66928349  0.11045462    -0.02700
C1803       C  0.21663117  0.65426915  0.11052236     0.07200
C1804       C  0.22234265  0.64184080  0.08911389    -0.02900
Br1805     Br  0.25533338  0.63638289  0.07985798    -0.01500
Br1806     Br  0.21076254  0.61658339  0.04521984    -0.01500
Br1807     Br  0.19223104  0.69495488  0.13361673    -0.01500
Br1808     Br  0.14921231  0.68454951  0.09410573    -0.01500
C1809       C  0.22559024  0.63330248  0.95444176    -0.02600
C1810       C  0.21965696  0.61779387  0.93512191     0.07100
C1811       C  0.19783171  0.60446481  0.93697276    -0.02700
C1812       C  0.18062853  0.61003359  0.95451352    -0.02700
C1813       C  0.18510041  0.62841225  0.97124678     0.07200
C1814       C  0.20783822  0.63975354  0.97147794    -0.02900
Br1815     Br  0.21481422  0.66407929  0.99519110    -0.01500
Br1816     Br  0.25835843  0.64247067  0.96074448    -0.01500
Br1817     Br  0.14984234  0.59355383  0.95410307    -0.01500
Br1818     Br  0.19102255  0.57748996  0.91633607    -0.01500
C1819       C  0.30577090  0.58194403  0.89117166    -0.02600
C1820       C  0.28053550  0.57858699  0.89204930     0.07100
C1821       C  0.27158256  0.55484155  0.89437834    -0.02700
C1822       C  0.28734278  0.53528325  0.89589330    -0.02700
C1823       C  0.31200539  0.53878661  0.89231421     0.07200
C1824       C  0.32119903  0.56207918  0.88943430    -0.02900
Br1825     Br  0.35488577  0.56663675  0.88223899    -0.01500
Br1826     Br  0.32012875  0.61306854  0.89341728    -0.01500
Br1827     Br  0.27518226  0.50336293  0.90193920    -0.01500
Br1828     Br  0.23785704  0.54820014  0.89502999    -0.01500
C1829       C  0.95721453  0.64783541  0.09611524    -0.02600
C1830       C  0.95325325  0.66336992  0.11578811     0.07100
C1831       C  0.93356740  0.67922264  0.11550021    -0.02700
C1832       C  0.91678006  0.67796849  0.09667926    -0.02700
C1833       C  0.91991538  0.66114604  0.07793127     0.07200
C1834       C  0.94076889  0.64701987  0.07714044    -0.02900
Br1835     Br  0.94750621  0.62738286  0.04932261    -0.01500
Br1836     Br  0.98561259  0.62804209  0.09438492    -0.01500
Br1837     Br  0.88906279  0.69865500  0.09739579    -0.01500
Br1838     Br  0.92870902  0.70187529  0.14133948    -0.01500
C1839       C  0.07134939  0.63646726  0.92627215    -0.02600
C1840       C  0.04829904  0.62719740  0.93118200     0.07100
C1841       C  0.04221233  0.62011139  0.95466597    -0.02700
C1842       C  0.05880489  0.62338569  0.97339540    -0.02700
C1843       C  0.08180570  0.63288524  0.96850059     0.07200
C1844       C  0.08810182  0.63927227  0.94488472    -0.02900
Br1845     Br  0.11991765  0.65130346  0.93782889    -0.01500
Br1846     Br  0.08035448  0.64413601  0.89376089    -0.01500
Br1847     Br  0.04943454  0.61649663  0.00598372    -0.01500
Br1848     Br  0.01098012  0.60642569  0.96135313    -0.01500
C1849       C  0.95301634  0.65018757  0.95335546    -0.02600
C1850       C  0.94754348  0.63398944  0.93451446     0.07100
C1851       C  0.92623048  0.62020594  0.93576663    -0.02700
C1852       C  0.91080075  0.62222895  0.95572759    -0.02700
C1853       C  0.91575025  0.63912477  0.97401564     0.07200
C1854       C  0.93696946  0.65303772  0.97277730    -0.02900
Br1855     Br  0.94477319  0.67508464  0.99844352    -0.01500
Br1856     Br  0.98313776  0.66755260  0.95351774    -0.01500
Br1857     Br  0.88249831  0.60209621  0.95750074    -0.01500
Br1858     Br  0.91714792  0.59967843  0.90929608    -0.01500
C1859       C  0.86535774  0.67934189  0.34039985    -0.02600
C1860       C  0.85227096  0.68259187  0.31899525     0.07100
C1861       C  0.83710869  0.70268552  0.31721998    -0.02700
C1862       C  0.83261289  0.71737174  0.33745447    -0.02700
C1863       C  0.84585434  0.71434886  0.35871442     0.07200
C1864       C  0.86203174  0.69492679  0.36010775    -0.02900
Br1865     Br  0.88079721  0.69033149  0.38880138    -0.01500
Br1866     Br  0.89039807  0.65554633  0.34181357    -0.01500
Br1867     Br  0.80891806  0.74219147  0.33565182    -0.01500
Br1868     Br  0.82741907  0.71367163  0.28607942    -0.01500
C1869       C  0.90704387  0.64151420  0.22709662    -0.02600
C1870       C  0.90569610  0.65271703  0.25013791     0.07100
C1871       C  0.92716268  0.66432182  0.25841530    -0.02700
C1872       C  0.94699029  0.66812258  0.24274380    -0.02700
C1873       C  0.94646735  0.65934829  0.21908718     0.07200
C1874       C  0.92614865  0.64648050  0.21129008    -0.02900
Br1875     Br  0.92401997  0.63599360  0.17821338    -0.01500
Br1876     Br  0.88639598  0.61513537  0.21784724    -0.01500
Br1877     Br  0.97563525  0.68427493  0.25394561    -0.01500
Br1878     Br  0.93246142  0.67083204  0.29198110    -0.01500
C1879       C  0.83699824  0.57727404  0.34040847    -0.02600
C1880       C  0.84649810  0.55548934  0.33215564     0.07100
C1881       C  0.86087495  0.55527411  0.31146577    -0.02700
C1882       C  0.86569611  0.57668162  0.29879642    -0.02700
C1883       C  0.85702869  0.59931792  0.30748156     0.07200
C1884       C  0.84292423  0.59906649  0.32892566    -0.02900
Br1885     Br  0.83374114  0.62794101  0.34568339    -0.01500
Br1886     Br  0.81709738  0.57736399  0.36891324    -0.01500
Br1887     Br  0.88410641  0.57303526  0.26955960    -0.01500
Br1888     Br  0.87385881  0.52497310  0.30044435    -0.01500
C1889       C  0.17682992  0.63121230  0.22031294    -0.02600
C1890       C  0.18170350  0.64597620  0.24041395     0.07100
C1891       C  0.20449109  0.65708330  0.24180458    -0.02700
C1892       C  0.21994831  0.65768700  0.22162527    -0.02700
C1893       C  0.21396119  0.64475596  0.20049788     0.07200
C1894       C  0.19318365  0.62990168  0.20106451    -0.02900
Br1895     Br  0.18799248  0.60554040  0.17675229    -0.01500
Br1896     Br  0.14847414  0.61111917  0.21938059    -0.01500
Br1897     Br  0.24913562  0.67612916  0.22406715    -0.01500
Br1898     Br  0.21615518  0.66827575  0.27235820    -0.01500
C1899       C  0.10091159  0.66026029  0.22608513    -0.02600
C1900       C  0.09902007  0.64705517  0.24793320     0.07100
C1901       C  0.07550925  0.63840273  0.25464240    -0.02700
C1902       C  0.05538803  0.64272654  0.23996454    -0.02700
C1903       C  0.05783032  0.65560033  0.21863759     0.07200
C1904       C  0.08039821  0.66478819  0.21199535    -0.02900
Br1905     Br  0.08333895  0.68278751  0.18252007    -0.01500
Br1906     Br  0.13120810  0.67074449  0.21268572    -0.01500
Br1907     Br  0.02357983  0.63177732  0.24933060    -0.01500
Br1908     Br  0.06847933  0.62059277  0.28361064    -0.01500
C1909       C  0.16206871  0.59652129  0.32879011    -0.02600
C1910       C  0.14914529  0.59712404  0.30684469     0.07100
C1911       C  0.13968145  0.57511665  0.29812013    -0.02700
C1912       C  0.13623608  0.55580264  0.31366229    -0.02700
C1913       C  0.14628092  0.55634417  0.33669261     0.07200
C1914       C  0.16007451  0.57641440  0.34392070    -0.02900
Br1915     Br  0.17515259  0.57712017  0.37509700    -0.01500
Br1916     Br  0.18550361  0.62102957  0.33684204    -0.01500
Br1917     Br  0.11830378  0.52829945  0.30258685    -0.01500
Br1918     Br  0.13720836  0.56837201  0.26422719    -0.01500
C1919       C  0.28571775  0.27204300  0.88476602    -0.02600
C1920       C  0.30749296  0.27539045  0.87230546     0.07100
C1921       C  0.31128003  0.29695287  0.85970373    -0.02700
C1922       C  0.29301879  0.31436334  0.85879309    -0.02700
C1923       C  0.27220078  0.31184660  0.87318530     0.07200
C1924       C  0.26938193  0.29106440  0.88709348    -0.02900
Br1925     Br  0.24313710  0.28829878  0.90917094    -0.01500
Br1926     Br  0.27622130  0.24044824  0.89520281    -0.01500
Br1927     Br  0.29631746  0.34113418  0.83711374    -0.01500
Br1928     Br  0.34076154  0.30209351  0.84245198    -0.01500
C1929       C  0.40261916  0.27364315  0.85267138    -0.02600
C1930       C  0.39101137  0.26293088  0.87268509     0.07100
C1931       C  0.40138718  0.26700526  0.89563408    -0.02700
C1932       C  0.42209783  0.28162550  0.89854550    -0.02700
C1933       C  0.43337856  0.29263557  0.87848409     0.07200
C1934       C  0.42339537  0.28810992  0.85539303    -0.02900
Br1935     Br  0.43739365  0.30130795  0.82620505    -0.01500
Br1936     Br  0.39025803  0.27004046  0.82064961    -0.01500
Br1937     Br  0.43468769  0.28546170  0.93081625    -0.01500
Br1938     Br  0.38904021  0.25159413  0.92395739    -0.01500
C1939       C  0.36646989  0.21335026  0.07090688    -0.02600
C1940       C  0.35305909  0.19224018  0.07393586     0.07100
C1941       C  0.34385993  0.18646619  0.09660461    -0.02700
C1942       C  0.34934546  0.20088805  0.11667345    -0.02700
C1943       C  0.36219548  0.22298263  0.11402128     0.07200
C1944       C  0.37075190  0.22891138  0.09048904    -0.02900
Br1945     Br  0.38800412  0.25813344  0.08301910    -0.01500
Br1946     Br  0.37779795  0.22141558  0.03907982    -0.01500
Br1947     Br  0.34130933  0.18727848  0.14738387    -0.01500
Br1948     Br  0.32420257  0.15792206  0.10031351    -0.01500
C1949       C  0.36389945  0.18202999  0.94466676    -0.02600
C1950       C  0.34832248  0.18792369  0.96385378     0.07100
C1951       C  0.33331286  0.20820420  0.96159774    -0.02700
C1952       C  0.33322059  0.22170969  0.94016358    -0.02700
C1953       C  0.34634509  0.21379236  0.91994626     0.07200
C1954       C  0.36290182  0.19478915  0.92298136    -0.02900
Br1955     Br  0.38577243  0.18691382  0.89793212    -0.01500
Br1956     Br  0.38577990  0.15525637  0.94685158    -0.01500
Br1957     Br  0.31656312  0.25182990  0.93959295    -0.01500
Br1958     Br  0.31286916  0.21786362  0.98786207    -0.01500
C1959       C  0.33109665  0.05190276  0.09104616    -0.02600
C1960       C  0.34636693  0.05398920  0.11118150     0.07100
C1961       C  0.36173621  0.07424954  0.11312724    -0.02700
C1962       C  0.36181170  0.09204390  0.09519517    -0.02700
C1963       C  0.34634392  0.09001436  0.07523433     0.07200
C1964       C  0.33088279  0.06992253  0.07338101    -0.02900
Br1965     Br  0.31006278  0.06626270  0.04592932    -0.01500
Br1966     Br  0.31151847  0.02352465  0.08644677    -0.01500
Br1967     Br  0.38239121  0.11987027  0.09878152    -0.01500
Br1968     Br  0.38207084  0.07858673  0.14088815    -0.01500
C1969       C  0.34774271  0.05603382  0.23576556    -0.02600
C1970       C  0.34068530  0.05799689  0.21180566     0.07100
C1971       C  0.33410468  0.08043234  0.20253429    -0.02700
C1972       C  0.33739756  0.10142046  0.21637760    -0.02700
C1973       C  0.34628903  0.09979647  0.24014863     0.07200
C1974       C  0.34928344  0.07664299  0.25025870    -0.02900
Br1975     Br  0.35382813  0.07249877  0.28431941    -0.01500
Br1976     Br  0.35568228  0.02491378  0.24847964    -0.01500
Br1977     Br  0.33063588  0.13174500  0.20148581    -0.01500
Br1978     Br  0.32185866  0.08242604  0.17022942    -0.01500
C1979       C  0.43550821  0.84668833  0.32636918    -0.02600
C1980       C  0.43759599  0.86569180  0.34342316     0.07100
C1981       C  0.42462519  0.88706350  0.33881198    -0.02700
C1982       C  0.40731559  0.88769829  0.32038482    -0.02700
C1983       C  0.40272272  0.86723576  0.30568686     0.07200
C1984       C  0.41993399  0.84869183  0.30647902    -0.02900
Br1985     Br  0.42859416  0.83136954  0.27769412    -0.01500
Br1986     Br  0.45399558  0.81756185  0.32880978    -0.01500
Br1987     Br  0.39122912  0.91785151  0.31489066    -0.01500
Br1988     Br  0.42930859  0.91614620  0.35755377    -0.01500
C1989       C  0.27823005  0.85112099  0.33251493    -0.02600
C1990       C  0.27858568  0.86795523  0.35144884     0.07100
C1991       C  0.29556151  0.88693235  0.35084371    -0.02700
C1992       C  0.31189581  0.88879479  0.33167833    -0.02700
C1993       C  0.31314771  0.87070898  0.31386086     0.07200
C1994       C  0.29551722  0.85233887  0.31395279    -0.02900
Br1995     Br  0.29541532  0.82775225  0.28970847    -0.01500
Br1996     Br  0.25574278  0.82472295  0.33316111    -0.01500
Br1997     Br  0.33193734  0.91696039  0.32965744    -0.01500
Br1998     Br  0.29710657  0.91060124  0.37641469    -0.01500
C1999       C  0.32926008  0.94228390  0.23099938    -0.02600
C2000       C  0.34687130  0.94618662  0.21308981     0.07100
C2001       C  0.36481576  0.92858193  0.20952744    -0.02700
C2002       C  0.36595831  0.90834710  0.22453837    -0.02700
C2003       C  0.34941355  0.90540989  0.24362219     0.07200
C2004       C  0.33031585  0.92185009  0.24589604    -0.02900
Br2005     Br  0.30557818  0.91703349  0.26959952    -0.01500
Br2006     Br  0.30449264  0.96576059  0.23659629    -0.01500
Br2007     Br  0.38952068  0.88374900  0.21781134    -0.01500
Br2008     Br  0.38759262  0.93119936  0.18340243    -0.01500
C2009       C  0.34976258  0.04423120  0.96054895    -0.02600
C2010       C  0.33867313  0.04761366  0.93814464     0.07100
C2011       C  0.32759514  0.06976738  0.93312866    -0.02700
C2012       C  0.32944088  0.08897422  0.94960606    -0.02700
C2013       C  0.34130939  0.08578017  0.97166726     0.07200
C2014       C  0.35096870  0.06317100  0.97727557    -0.02900
Br2015     Br  0.36515811  0.05777599  0.00828175    -0.01500
Br2016     Br  0.36206313  0.01308089  0.96894903    -0.01500
Br2017     Br  0.31706240  0.12011556  0.94129220    -0.01500
Br2018     Br  0.30998647  0.07404305  0.90373197    -0.01500
C2019       C  0.36285156  0.93459067  0.07501931    -0.02600
C2020       C  0.35251497  0.91203232  0.08012280     0.07100
C2021       C  0.34198881  0.90766521  0.10270325    -0.02700
C2022       C  0.34138463  0.92596787  0.11997244    -0.02700
C2023       C  0.35115005  0.94865746  0.11461747     0.07200
C2024       C  0.36209719  0.95294574  0.09229604    -0.02900
Br2025     Br  0.37496838  0.98434146  0.08503001    -0.01500
Br2026     Br  0.37696118  0.94084510  0.04404692    -0.01500
Br2027     Br  0.32797481  0.91963657  0.15128504    -0.01500
Br2028     Br  0.32919325  0.87633791  0.11048350    -0.01500
C2029       C  0.33149488  0.92679730  0.97986881    -0.02600
C2030       C  0.34552185  0.90595387  0.97643673     0.07100
C2031       C  0.35741974  0.90263373  0.95435204    -0.02700
C2032       C  0.35602434  0.92021241  0.93627846    -0.02700
C2033       C  0.34226083  0.94118896  0.93974022     0.07200
C2034       C  0.32933316  0.94395033  0.96137965    -0.02900
Br2035     Br  0.30897072  0.97149086  0.96603402    -0.01500
Br2036     Br  0.31662459  0.93293815  0.01053813    -0.01500
Br2037     Br  0.37188040  0.91459069  0.90609885    -0.01500
Br2038     Br  0.37480526  0.87332939  0.94832546    -0.01500
C2039       C  0.54710131  0.29775991  0.16714488    -0.02600
C2040       C  0.54865862  0.31820657  0.15265105     0.07100
C2041       C  0.56714685  0.31984197  0.13543944    -0.02700
C2042       C  0.58505853  0.30207643  0.13430381    -0.02700
C2043       C  0.58489434  0.28252104  0.15071059     0.07200
C2044       C  0.56373550  0.27913812  0.16453667    -0.02900
Br2045     Br  0.55251750  0.24774974  0.17360790    -0.01500
Br2046     Br  0.52162890  0.29442500  0.19027192    -0.01500
Br2047     Br  0.60885540  0.30470053  0.10920979    -0.01500
Br2048     Br  0.56923427  0.34746863  0.11461265    -0.01500
C2049       C  0.64539793  0.03363349  0.09650952    -0.02600
C2050       C  0.63169264  0.03596511  0.11769655     0.07100
C2051       C  0.61846423  0.05724224  0.12174565    -0.02700
C2052       C  0.61920259  0.07598483  0.10485602    -0.02700
C2053       C  0.63335909  0.07373198  0.08397653     0.07200
C2054       C  0.64604928  0.05231143  0.07967586    -0.02900
Br2055     Br  0.66306661  0.04765093  0.04979502    -0.01500
Br2056     Br  0.66269622  0.00440845  0.08977914    -0.01500
Br2057     Br  0.60144652  0.10510008  0.11084579    -0.01500
Br2058     Br  0.60053560  0.06175555  0.15109783    -0.01500
C2059       C  0.64651551  0.17550458  0.10320004    -0.02600
C2060       C  0.63934203  0.18034374  0.07963647     0.07100
C2061       C  0.63329022  0.20385394  0.07323355    -0.02700
C2062       C  0.63402134  0.22236904  0.09049256    -0.02700
C2063       C  0.63778723  0.21713234  0.11508549     0.07200
C2064       C  0.64496508  0.19342265  0.12106771    -0.02900
Br2065     Br  0.65200761  0.18371783  0.15323212    -0.01500
Br2066     Br  0.65768375  0.14370317  0.11105023    -0.01500
Br2067     Br  0.63250404  0.25500434  0.07947458    -0.01500
Br2068     Br  0.62415154  0.21067744  0.04063583    -0.01500
C2069       C  0.65032332  0.20316978  0.94857844    -0.02600
C2070       C  0.63288822  0.19751523  0.93107340     0.07100
C2071       C  0.61874981  0.17664356  0.93358260    -0.02700
C2072       C  0.62088653  0.16235149  0.95405671    -0.02700
C2073       C  0.63735195  0.16869426  0.97226707     0.07200
C2074       C  0.65266454  0.18870091  0.96910747    -0.02900
Br2075     Br  0.67601814  0.19710880  0.99331159    -0.01500
Br2076     Br  0.67035550  0.23119352  0.94519748    -0.01500
Br2077     Br  0.60172463  0.13336249  0.95634914    -0.01500
Br2078     Br  0.59699680  0.16685130  0.90841023    -0.01500
C2079       C  0.55875508  0.24532722  0.88987663    -0.02600
C2080       C  0.58105523  0.25245267  0.87955614     0.07100
C2081       C  0.58088625  0.27307005  0.86467941    -0.02700
C2082       C  0.56227363  0.28973792  0.86651792    -0.02700
C2083       C  0.54176855  0.28440175  0.88029758     0.07200
C2084       C  0.53932596  0.26152515  0.89061214    -0.02900
Br2085     Br  0.50878171  0.25190112  0.90408092    -0.01500
Br2086     Br  0.55265006  0.21240477  0.89851338    -0.01500
Br2087     Br  0.56598276  0.32056577  0.85102462    -0.01500
Br2088     Br  0.60398178  0.27772133  0.83920620    -0.01500
C2089       C  0.61418438  0.91400671  0.08453245    -0.02600
C2090       C  0.62595381  0.89206056  0.08862850     0.07100
C2091       C  0.63786644  0.88849867  0.11063240    -0.02700
C2092       C  0.63932989  0.90713887  0.12765207    -0.02700
C2093       C  0.62817031  0.92928512  0.12324578     0.07200
C2094       C  0.61523434  0.93254402  0.10181163    -0.02900
Br2095     Br  0.60061390  0.96315155  0.09523311    -0.01500
Br2096     Br  0.59789138  0.91945134  0.05478003    -0.01500
Br2097     Br  0.65654556  0.90215647  0.15715954    -0.01500
Br2098     Br  0.65163563  0.85766880  0.11792900    -0.01500
C2099       C  0.64778801  0.05229040  0.94324657    -0.02600
C2100       C  0.63285207  0.03194468  0.94649832     0.07100
C2101       C  0.61821970  0.03059083  0.96724844    -0.02700
C2102       C  0.61899519  0.04899129  0.98470188    -0.02700
C2103       C  0.63396007  0.06922218  0.98139531     0.07200
C2104       C  0.64813754  0.07088926  0.96045577    -0.02900
Br2105     Br  0.66686684  0.09952874  0.95435018    -0.01500
Br2106     Br  0.66677594  0.05573812  0.91441935    -0.01500
Br2107     Br  0.60035678  0.04582067  0.01378602    -0.01500
Br2108     Br  0.59761285  0.00318151  0.97257978    -0.01500
C2109       C  0.61289633  0.92105215  0.96223279    -0.02600
C2110       C  0.63384098  0.92659275  0.94866105     0.07100
C2111       C  0.65527900  0.91365296  0.95343026    -0.02700
C2112       C  0.65527080  0.89478659  0.97016006    -0.02700
C2113       C  0.63439946  0.88933028  0.98366709     0.07200
C2114       C  0.61320447  0.90270433  0.97951011    -0.02900
Br2115     Br  0.58391679  0.89691827  0.99756896    -0.01500
Br2116     Br  0.58331141  0.93902636  0.95886757    -0.01500
Br2117     Br  0.68403136  0.87556087  0.97289818    -0.01500
Br2118     Br  0.68559363  0.92100541  0.93772526    -0.01500
C2119       C  0.66041589  0.92576916  0.23498009    -0.02600
C2120       C  0.64003147  0.94040669  0.23026650     0.07100
C2121       C  0.62251525  0.94252802  0.24863729    -0.02700
C2122       C  0.62524208  0.92987589  0.27000121    -0.02700
C2123       C  0.64069068  0.91000727  0.27094014     0.07200
C2124       C  0.66088184  0.91092722  0.25556317    -0.02900
Br2125     Br  0.69111905  0.89728865  0.26519310    -0.01500
Br2126     Br  0.68761303  0.92456993  0.21343336    -0.01500
Br2127     Br  0.61512383  0.94533382  0.29941021    -0.01500
Br2128     Br  0.59400965  0.96187947  0.24603991    -0.01500
C2129       C  0.55980896  0.85975386  0.31679360    -0.02600
C2130       C  0.58231336  0.86803915  0.32579769     0.07100
C2131       C  0.58204036  0.88131063  0.34767815    -0.02700
C2132       C  0.56196082  0.88019154  0.36290380    -0.02700
C2133       C  0.54120284  0.86775238  0.35556849     0.07200
C2134       C  0.53966698  0.85886021  0.33204864    -0.02900
Br2135     Br  0.50916156  0.84759440  0.32005878    -0.01500
Br2136     Br  0.55412824  0.85459964  0.28292620    -0.01500
Br2137     Br  0.56326081  0.89538674  0.39411615    -0.01500
Br2138     Br  0.60750429  0.90360125  0.35618583    -0.01500
C2139       C  0.65135811  0.21396751  0.21018158    -0.02600
C2140       C  0.63096161  0.21694423  0.19546830     0.07100
C2141       C  0.61243736  0.19937976  0.19637890    -0.02700
C2142       C  0.61356001  0.18023124  0.21266975    -0.02700
C2143       C  0.63329232  0.17812256  0.22833487     0.07200
C2144       C  0.65232875  0.19485298  0.22669692    -0.02900
Br2145     Br  0.68090505  0.19033806  0.24547008    -0.01500
Br2146     Br  0.67896536  0.23466826  0.20679411    -0.01500
Br2147     Br  0.58854723  0.15590774  0.21209982    -0.01500
Br2148     Br  0.58759745  0.19844561  0.17232779    -0.01500
C2149       C  0.65563271  0.08611959  0.21689855    -0.02600
C2150       C  0.64329690  0.08859703  0.23911901     0.07100
C2151       C  0.63626237  0.06714607  0.25087917    -0.02700
C2152       C  0.63476273  0.04548091  0.23804788    -0.02700
C2153       C  0.64241736  0.04449593  0.21413901     0.07200
C2154       C  0.65402838  0.06450400  0.20395972    -0.02900
Br2155     Br  0.66747603  0.06264113  0.17203866    -0.01500
Br2156     Br  0.67871601  0.10979646  0.20590390    -0.01500
Br2157     Br  0.62401214  0.01668070  0.25379726    -0.01500
Br2158     Br  0.63352543  0.06552457  0.28517677    -0.01500
C2159       C  0.59606169  0.12638640  0.31660455    -0.02600
C2160       C  0.59594350  0.14143472  0.29632031     0.07100
C2161       C  0.57660994  0.15729072  0.29313054    -0.02700
C2162       C  0.55658325  0.15637684  0.30867712    -0.02700
C2163       C  0.55598667  0.13989402  0.32784332     0.07200
C2164       C  0.57584102  0.12479076  0.33162580    -0.02900
Br2165     Br  0.57568086  0.10152161  0.35720864    -0.01500
Br2166     Br  0.62496868  0.10987412  0.32557616    -0.01500
Br2167     Br  0.52900096  0.17616149  0.30221964    -0.01500
Br2168     Br  0.57766437  0.18079210  0.26809146    -0.01500
C2169       C  0.59154744  0.39394177  0.90299964    -0.02600
C2170       C  0.59019465  0.41648255  0.89175649     0.07100
C2171       C  0.56889988  0.42305620  0.87991134    -0.02700
C2172       C  0.54925621  0.40714652  0.87892007    -0.02700
C2173       C  0.55031924  0.38481519  0.89063969     0.07200
C2174       C  0.57152696  0.37829325  0.90279454    -0.02900
Br2175     Br  0.57371909  0.34745302  0.91815617    -0.01500
Br2176     Br  0.62128407  0.38391577  0.91740234    -0.01500
Br2177     Br  0.52048521  0.41662379  0.86218820    -0.01500
Br2178     Br  0.56580417  0.45460166  0.86634002    -0.01500
C2179       C  0.56082252  0.54673120  0.87450318    -0.02600
C2180       C  0.55819440  0.56111239  0.89542728     0.07100
C2181       C  0.57365695  0.55657422  0.91509546    -0.02700
C2182       C  0.58977224  0.53712090  0.91461570    -0.02700
C2183       C  0.59172416  0.52218663  0.89403938     0.07200
C2184       C  0.57800890  0.52811845  0.87351157    -0.02900
Br2185     Br  0.58258297  0.51152822  0.84328831    -0.01500
Br2186     Br  0.54053016  0.55126371  0.84687543    -0.01500
Br2187     Br  0.61048872  0.53275695  0.94218381    -0.01500
Br2188     Br  0.57455134  0.57769251  0.94280655    -0.01500
C2189       C  0.45305221  0.54495006  0.88189123    -0.02600
C2190       C  0.45268759  0.56326968  0.89952451     0.07100
C2191       C  0.43351403  0.56390462  0.91617647    -0.02700
C2192       C  0.41480328  0.54679993  0.91492246    -0.02700
C2193       C  0.41503123  0.52878842  0.89701035     0.07200
C2194       C  0.43472077  0.52745866  0.88108951    -0.02900
Br2195     Br  0.43777975  0.50056769  0.85925555    -0.01500
Br2196     Br  0.47867873  0.54315151  0.85868471    -0.01500
Br2197     Br  0.38839520  0.54906681  0.93737990    -0.01500
Br2198     Br  0.43144282  0.58939863  0.93966235    -0.01500
C2199       C  0.42240109  0.59865372  0.16143680    -0.02600
C2200       C  0.44327702  0.59284226  0.17452039     0.07100
C2201       C  0.44531967  0.56978213  0.18462807    -0.02700
C2202       C  0.42674488  0.55274348  0.18162428    -0.02700
C2203       C  0.40589057  0.55858176  0.16857512     0.21600
C2204       C  0.40403345  0.58142623  0.15802683    -0.02900
Br2205     Br  0.37626636  0.58931373  0.13904058    -0.01500
Br2206     Br  0.41812052  0.63079061  0.14949372    -0.01500
Br2207     Br  0.43080251  0.52063249  0.19381435    -0.01500
Br2208     Br  0.47407382  0.56093387  0.20164573    -0.01500
C2209       C  0.59054935  0.57488319  0.18325818    -0.02600
C2210       C  0.59077722  0.55916391  0.16326170     0.07100
C2211       C  0.57194216  0.56054624  0.14634028    -0.02700
C2212       C  0.55205027  0.57542972  0.15060710    -0.02700
C2213       C  0.55159977  0.59075081  0.17077455     0.07200
C2214       C  0.57130097  0.59086220  0.18676723    -0.02900
Br2215     Br  0.57312755  0.61397932  0.21269990    -0.01500
Br2216     Br  0.61755233  0.57623686  0.20500558    -0.01500
Br2217     Br  0.52470824  0.57347453  0.12928166    -0.01500
Br2218     Br  0.57283093  0.54256292  0.11682912    -0.01500
C2219       C  0.57634926  0.41535328  0.16352086    -0.02600
C2220       C  0.55629048  0.41796308  0.14837369     0.07100
C2221       C  0.55650924  0.43630826  0.13103130    -0.02700
C2222       C  0.57411913  0.45448216  0.13205004    -0.02700
C2223       C  0.59253275  0.45364057  0.14947810     0.07200
C2224       C  0.59436149  0.43312557  0.16416174    -0.02900
Br2225     Br  0.62214975  0.42830949  0.18429998    -0.01500
Br2226     Br  0.58052442  0.38613358  0.18154002    -0.01500
Br2227     Br  0.57163742  0.48086015  0.11003741    -0.01500
Br2228     Br  0.53337683  0.43667649  0.10527284    -0.01500
C2229       C  0.54816231  0.86803052  0.49735953    -0.02600
C2230       C  0.57030396  0.85668965  0.49248015     0.07100
C2231       C  0.57424979  0.84649337  0.46964402    -0.02700
C2232       C  0.55628982  0.84747643  0.45191163    -0.02700
C2233       C  0.53421238  0.85894329  0.45668509     0.07200
C2234       C  0.53026255  0.86927878  0.47948702    -0.02900
Br2235     Br  0.49975367  0.88396310  0.48672018    -0.01500
Br2236     Br  0.54163679  0.88056355  0.52897825    -0.01500
Br2237     Br  0.56251801  0.83375163  0.42070012    -0.01500
Br2238     Br  0.60478750  0.83192846  0.46221195    -0.01500
C2239       C  0.52809034  0.83028948  0.60683447    -0.02600
C2240       C  0.53087363  0.84120699  0.62951614     0.07100
C2241       C  0.55275675  0.85276118  0.63534503    -0.02700
C2242       C  0.57162891  0.85347310  0.61855983    -0.02700
C2243       C  0.56840888  0.84357256  0.59551001     0.07200
C2244       C  0.54666476  0.83183432  0.58972524    -0.02900
Br2245     Br  0.54186199  0.81873925  0.55800568    -0.01500
Br2246     Br  0.49852498  0.81394496  0.59876528    -0.01500
Br2247     Br  0.60253755  0.86647581  0.62774556    -0.01500
Br2248     Br  0.55746957  0.86677192  0.66672217    -0.01500
C2249       C  0.41425554  0.86238199  0.58995499    -0.02600
C2250       C  0.39222319  0.84990261  0.59155874     0.07100
C2251       C  0.38689612  0.83611466  0.61205733    -0.02700
C2252       C  0.40393461  0.83402727  0.63042908    -0.02700
C2253       C  0.42592657  0.84659468  0.62882479     0.07200
C2254       C  0.43102484  0.86084334  0.60864539    -0.02900
Br2255     Br  0.46168394  0.87705431  0.60585497    -0.01500
Br2256     Br  0.42206829  0.88071646  0.56172931    -0.01500
Br2257     Br  0.39675077  0.81440298  0.65803016    -0.01500
Br2258     Br  0.35564912  0.82130330  0.61583724    -0.01500
C2259       C  0.11761424  0.58717853  0.44734342    -0.02600
C2260       C  0.13237431  0.58666544  0.46783081     0.07100
C2261       C  0.14741338  0.56672827  0.47174142    -0.02700
C2262       C  0.14735460  0.54733714  0.45554101    -0.02700
C2263       C  0.13311550  0.54811984  0.43464721     0.07200
C2264       C  0.11850561  0.56834667  0.43046375    -0.02900
Br2265     Br  0.10133000  0.57167428  0.40060214    -0.01500
Br2266     Br  0.09710980  0.61428459  0.44148575    -0.01500
Br2267     Br  0.16626005  0.51932000  0.46277482    -0.01500
Br2268     Br  0.16777537  0.56526118  0.49976592    -0.01500
C2269       C  0.14495383  0.56328972  0.60635936    -0.02600
C2270       C  0.13386889  0.54128105  0.60040875     0.07100
C2271       C  0.12315180  0.53822422  0.57774081    -0.02700
C2272       C  0.12346744  0.55717069  0.56115077    -0.02700
C2273       C  0.13424374  0.57932829  0.56732440     0.07200
C2274       C  0.14516979  0.58225040  0.58988062    -0.02900
Br2275     Br  0.15925714  0.61273690  0.59886941    -0.01500
Br2276     Br  0.15835118  0.56824421  0.63774354    -0.01500
Br2277     Br  0.10986397  0.55238485  0.52971426    -0.01500
Br2278     Br  0.10837445  0.50794799  0.56925231    -0.01500
C2279       C  0.11919889  0.41371089  0.60014944    -0.02600
C2280       C  0.13147903  0.43555206  0.59607934     0.07100
C2281       C  0.14429610  0.43871838  0.57441949    -0.02700
C2282       C  0.14437635  0.42042435  0.55685699    -0.02700
C2283       C  0.13158683  0.39883345  0.56076972     0.07200
C2284       C  0.11923472  0.39546563  0.58258028    -0.02900
Br2285     Br  0.10372518  0.36511885  0.58912612    -0.01500
Br2286     Br  0.10367559  0.40800861  0.63057351    -0.01500
Br2287     Br  0.16159890  0.42530617  0.52715004    -0.01500
Br2288     Br  0.16128391  0.46834868  0.56834177    -0.01500
C2289       C  0.44806087  0.14078551  0.58904412    -0.02600
C2290       C  0.44209316  0.12838900  0.61030200     0.07100
C2291       C  0.41960241  0.11670914  0.61187895    -0.02700
C2292       C  0.40343364  0.11710204  0.59239869    -0.02700
C2293       C  0.40903489  0.13016427  0.57141169     0.07200
C2294       C  0.43142771  0.14216075  0.56996463    -0.02900
Br2295     Br  0.43996625  0.15958026  0.54141021    -0.01500
Br2296     Br  0.47976393  0.15453864  0.58536487    -0.01500
Br2297     Br  0.37314500  0.10021650  0.59503164    -0.01500
Br2298     Br  0.41027850  0.10124189  0.64132428    -0.01500
C2299       C  0.58446141  0.14016753  0.59821408    -0.02600
C2300       C  0.58189714  0.12514264  0.57791912     0.07100
C2301       C  0.56233700  0.10895948  0.57676176    -0.02700
C2302       C  0.54377371  0.11031116  0.59381798    -0.02700
C2303       C  0.54551747  0.12646405  0.61334752     0.07200
C2304       C  0.56632048  0.14088429  0.61584563    -0.02900
Br2305     Br  0.57089478  0.16054488  0.64408481    -0.01500
Br2306     Br  0.61419070  0.15751964  0.60342582    -0.01500
Br2307     Br  0.51528441  0.09081123  0.58922188    -0.01500
Br2308     Br  0.56093569  0.08411452  0.55254003    -0.01500
C2309       C  0.54102159  0.12993062  0.45509289    -0.02600
C2310       C  0.54893813  0.13510895  0.43166376     0.07100
C2311       C  0.57360330  0.13892051  0.42737986    -0.02700
C2312       C  0.59039719  0.13574908  0.44595918    -0.02700
C2313       C  0.58250786  0.13106999  0.46953318     0.07200
C2314       C  0.55768882  0.12873867  0.47407516    -0.02900
Br2315     Br  0.54647035  0.12502287  0.50645297    -0.01500
Br2316     Br  0.50720383  0.12538916  0.46128307    -0.01500
Br2317     Br  0.62420760  0.13737641  0.43885823    -0.01500
Br2318     Br  0.58427572  0.14989793  0.39643570    -0.01500
C2319       C  0.84833895  0.41000333  0.61203536    -0.02600
C2320       C  0.83830143  0.43288348  0.60882805     0.07100
C2321       C  0.82975355  0.43969745  0.58612110    -0.02700
C2322       C  0.83217887  0.42404970  0.56643362    -0.02700
C2323       C  0.84294512  0.40151262  0.56950496     0.07200
C2324       C  0.85063556  0.39431050  0.59239828    -0.02900
Br2325     Br  0.86404921  0.36282826  0.59695906    -0.01500
Br2326     Br  0.85860594  0.40008241  0.64345667    -0.01500
Br2327     Br  0.82192501  0.43390742  0.53500666    -0.01500
Br2328     Br  0.81547551  0.47077205  0.58178944    -0.01500
C2329       C  0.85105356  0.70630129  0.48183347    -0.02600
C2330       C  0.83902121  0.68434213  0.47823296     0.07100
C2331       C  0.82728688  0.68043458  0.45613563    -0.02700
C2332       C  0.82997770  0.69689310  0.43692843    -0.02700
C2333       C  0.84250740  0.71911770  0.44028921     0.07200
C2334       C  0.85080043  0.72418642  0.46391454    -0.02900
Br2335     Br  0.85758341  0.75665603  0.47374906    -0.01500
Br2336     Br  0.86726781  0.71241377  0.51175930    -0.01500
Br2337     Br  0.81657669  0.68711978  0.40657803    -0.01500
Br2338     Br  0.80794255  0.65176277  0.45182798    -0.01500
C2339       C  0.81311667  0.57113446  0.59478797    -0.02600
C2340       C  0.82917719  0.57117228  0.57504692     0.07100
C2341       C  0.84491635  0.55164472  0.57215950    -0.02700
C2342       C  0.84707551  0.53414466  0.59019035    -0.02700
C2343       C  0.83253135  0.53513621  0.61101549     0.07200
C2344       C  0.81471985  0.55318404  0.61260989    -0.02900
Br2345     Br  0.79298283  0.55435472  0.63966595    -0.01500
Br2346     Br  0.78908934  0.59582465  0.59804321    -0.01500
Br2347     Br  0.86953658  0.50825842  0.58538296    -0.01500
Br2348     Br  0.86199225  0.54758774  0.54225300    -0.01500
C2349       C  0.82444381  0.55995643  0.47237037    -0.02600
C2350       C  0.83685083  0.58202079  0.47092111     0.07100
C2351       C  0.85179320  0.58666523  0.45095601    -0.02700
C2352       C  0.85418370  0.56943733  0.43253923    -0.02700
C2353       C  0.84135265  0.54755166  0.43375596     0.07200
C2354       C  0.82672189  0.54278091  0.45391976    -0.02900
Br2355     Br  0.81125524  0.51188465  0.45736986    -0.01500
Br2356     Br  0.80555685  0.55249138  0.50046273    -0.01500
Br2357     Br  0.87478860  0.57618955  0.40546418    -0.01500
Br2358     Br  0.86844133  0.61703524  0.44832089    -0.01500
C2359       C  0.70455837  0.85993723  0.62424320    -0.02600
C2360       C  0.70543316  0.83863830  0.63804216     0.07100
C2361       C  0.68834341  0.82036234  0.63301969    -0.02700
C2362       C  0.67172454  0.82268013  0.61419340    -0.02700
C2363       C  0.67227006  0.84310385  0.59932909     0.07200
C2364       C  0.68914952  0.86150366  0.60425832    -0.02900
Br2365     Br  0.69287840  0.88830080  0.58257710    -0.01500
Br2366     Br  0.72309996  0.88802943  0.63238722    -0.01500
Br2367     Br  0.64740531  0.79796736  0.60999973    -0.01500
Br2368     Br  0.68540980  0.79273464  0.65317287    -0.01500
C2369       C  0.77366055  0.89587870  0.69192952    -0.02600
C2370       C  0.76927356  0.88050105  0.67247681     0.07100
C2371       C  0.78008152  0.88583211  0.65016846    -0.02700
C2372       C  0.79267516  0.90768138  0.64682010    -0.02700
C2373       C  0.79425656  0.92481856  0.66574660     0.07200
C2374       C  0.78413650  0.91862601  0.68834117    -0.02900
Br2375     Br  0.78360296  0.94082217  0.71501690    -0.01500
Br2376     Br  0.77077887  0.88353008  0.72404334    -0.01500
Br2377     Br  0.80933720  0.91235481  0.61671591    -0.01500
Br2378     Br  0.77970016  0.86206405  0.62474097    -0.01500
C2379       C  0.30939873  0.82177380  0.74723177    -0.02600
C2380       C  0.30412121  0.83226727  0.76953688     0.07100
C2381       C  0.28008815  0.83896008  0.77417566    -0.02700
C2382       C  0.26339519  0.84056554  0.75500964    -0.02700
C2383       C  0.27020287  0.83334219  0.73150012     0.07200
C2384       C  0.29161062  0.81971743  0.72963876    -0.02900
Br2385     Br  0.29532128  0.79456406  0.70580239    -0.01500
Br2386     Br  0.34055544  0.80899081  0.74040354    -0.01500
Br2387     Br  0.23078864  0.84937380  0.76215532    -0.01500
Br2388     Br  0.26967080  0.84416873  0.80678425    -0.01500
C2389       C  0.39978475  0.81730038  0.76123242    -0.02600
C2390       C  0.38716754  0.83845885  0.76817856     0.07100
C2391       C  0.39423112  0.86050913  0.75745202    -0.02700
C2392       C  0.41217459  0.86105387  0.73949317    -0.02700
C2393       C  0.42524538  0.84005798  0.73358031     0.07200
C2394       C  0.41978444  0.81862126  0.74586614    -0.02900
Br2395     Br  0.44076049  0.79099742  0.74378901    -0.01500
Br2396     Br  0.38928250  0.78525002  0.77001321    -0.01500
Br2397     Br  0.41808107  0.89117496  0.72314309    -0.01500
Br2398     Br  0.38118467  0.89098203  0.76749387    -0.01500
C2399       C  0.36771755  0.89916276  0.82865628    -0.02600
C2400       C  0.34640362  0.89018786  0.81826626     0.07100
C2401       C  0.32725701  0.90604395  0.81450183    -0.02700
C2402       C  0.32756123  0.92915417  0.82501444    -0.02700
C2403       C  0.34772053  0.93707185  0.83860358     0.07200
C2404       C  0.36868079  0.92259077  0.83824643    -0.02900
Br2405     Br  0.39926304  0.93386334  0.85049415    -0.01500
Br2406     Br  0.39628267  0.87966979  0.82860203    -0.01500
Br2407     Br  0.30027496  0.94974090  0.81973895    -0.01500
Br2408     Br  0.30082772  0.89643965  0.79449953    -0.01500
C2409       C  0.84558003  0.54680360  0.75821144    -0.02600
C2410       C  0.84520170  0.57123467  0.75118004     0.07100
C2411       C  0.84535625  0.57658417  0.72633812    -0.02700
C2412       C  0.84630101  0.55813618  0.70911412    -0.02700
C2413       C  0.84567704  0.53408457  0.71623428     0.07200
C2414       C  0.84568671  0.52836390  0.74073957    -0.02900
Br2415     Br  0.84653771  0.49511464  0.75010534    -0.01500
Br2416     Br  0.84644400  0.53813799  0.79162461    -0.01500
Br2417     Br  0.84845032  0.56571429  0.67538863    -0.01500
Br2418     Br  0.84177272  0.60867987  0.71475933    -0.01500
C2419       C  0.90476537  0.63901979  0.81246793    -0.02600
C2420       C  0.89731736  0.61626116  0.80413301     0.07100
C2421       C  0.91356520  0.59709810  0.80489200    -0.02700
C2422       C  0.93571823  0.59977654  0.81693659    -0.02700
C2423       C  0.94158107  0.62168488  0.82873647     0.07200
C2424       C  0.92673072  0.64185348  0.82464727    -0.02900
Br2425     Br  0.93534260  0.67368389  0.83573445    -0.01500
Br2426     Br  0.88510310  0.66676273  0.80668302    -0.01500
Br2427     Br  0.95830284  0.57358630  0.81587962    -0.01500
Br2428     Br  0.90537979  0.56717374  0.78953233    -0.01500
C2429       C  0.68519894  0.29962253  0.89305511    -0.02600
C2430       C  0.70886835  0.29371340  0.88570405     0.07100
C2431       C  0.71288925  0.26932531  0.87910008    -0.02700
C2432       C  0.69328136  0.25285589  0.87832543    -0.02700
C2433       C  0.67123665  0.25888722  0.88957590     0.07200
C2434       C  0.66983214  0.28154921  0.90068584    -0.02900
Br2435     Br  0.64624805  0.28961482  0.92482940    -0.01500
Br2436     Br  0.66756101  0.32565344  0.87874022    -0.01500
Br2437     Br  0.69668828  0.22365349  0.86009963    -0.01500
Br2438     Br  0.74428517  0.25836536  0.86943112    -0.01500
C2439       C  0.73226390  0.39819469  0.87923188    -0.02600
C2440       C  0.73186250  0.38082289  0.89741564     0.07100
C2441       C  0.71812422  0.38539484  0.91815743    -0.02700
C2442       C  0.70102325  0.40385549  0.91857618    -0.02700
C2443       C  0.69865751  0.41929314  0.89858780     0.07200
C2444       C  0.71563739  0.41727233  0.87961629    -0.02900
Br2445     Br  0.71650044  0.44021973  0.85377058    -0.01500
Br2446     Br  0.75558391  0.39591626  0.85384068    -0.01500
Br2447     Br  0.67959095  0.40543142  0.94590313    -0.01500
Br2448     Br  0.72219532  0.36543302  0.94586027    -0.01500
C2449       C  0.79262582  0.31918106  0.96992296    -0.02600
C2450       C  0.81562904  0.32926318  0.96778532     0.07100
C2451       C  0.82275231  0.33929970  0.94574147    -0.02700
C2452       C  0.80755721  0.33796780  0.92542859    -0.02700
C2453       C  0.78411932  0.32731555  0.92710040     0.07200
C2454       C  0.77667184  0.31889014  0.95027237    -0.02900
Br2455     Br  0.74403998  0.30890125  0.95758449    -0.01500
Br2456     Br  0.78239651  0.30710539  0.00080099    -0.01500
Br2457     Br  0.82085746  0.35056292  0.89599092    -0.01500
Br2458     Br  0.85404307  0.35455571  0.94322985    -0.01500
C2459       C  0.57532223  0.70674861  0.90314411    -0.02600
C2460       C  0.59951133  0.69890048  0.90167252     0.07100
C2461       C  0.60390037  0.67390381  0.90239751    -0.02700
C2462       C  0.58464832  0.65737279  0.90268764    -0.02700
C2463       C  0.56080452  0.66539781  0.90308513     0.07200
C2464       C  0.55613365  0.69009660  0.90343765    -0.02900
Br2465     Br  0.52324935  0.70096316  0.90395666    -0.01500
Br2466     Br  0.56793834  0.74011844  0.90689515    -0.01500
Br2467     Br  0.59082416  0.62341309  0.90102808    -0.01500
Br2468     Br  0.63585569  0.66128779  0.90275957    -0.01500
C2469       C  0.63050159  0.75116933  0.96407124    -0.02600
C2470       C  0.64658513  0.75656708  0.94525175     0.07100
C2471       C  0.66519948  0.77351756  0.94940892    -0.02700
C2472       C  0.66547757  0.78731595  0.97060146    -0.02700
C2473       C  0.64677693  0.78473006  0.98763778     0.07200
C2474       C  0.63075512  0.76510171  0.98525100    -0.02900
Br2475     Br  0.61009999  0.75632896  0.01165566    -0.01500
Br2476     Br  0.60717810  0.72570371  0.96080867    -0.01500
Br2477     Br  0.69161668  0.80974430  0.97549028    -0.01500
Br2478     Br  0.69071359  0.77797780  0.92611814    -0.01500
C2479       C  0.78688818  0.75227939  0.67024836    -0.02600
C2480       C  0.80737616  0.75561757  0.68472047     0.07100
C2481       C  0.80653591  0.77353288  0.70257387    -0.02700
C2482       C  0.78943032  0.79184237  0.70156692    -0.02700
C2483       C  0.77133089  0.79129269  0.68364132     0.07200
C2484       C  0.76811626  0.76922262  0.67107797    -0.02900
Br2485     Br  0.73689630  0.75834302  0.66074183    -0.01500
Br2486     Br  0.78342685  0.72446967  0.64990225    -0.01500
Br2487     Br  0.79121926  0.81698655  0.72569986    -0.01500
Br2488     Br  0.82744512  0.77181243  0.72983447    -0.01500
C2489       C  0.83080811  0.68590415  0.72623569    -0.02600
C2490       C  0.85227373  0.68983685  0.71346048     0.07100
C2491       C  0.87220796  0.67493090  0.71818463    -0.02700
C2492       C  0.87176647  0.65930878  0.73784404    -0.02700
C2493       C  0.84956912  0.65370558  0.74913079     0.07200
C2494       C  0.82865886  0.66585750  0.74108587    -0.02900
Br2495     Br  0.79642110  0.65347638  0.74587067    -0.01500
Br2496     Br  0.80461100  0.70841394  0.72579552    -0.01500
Br2497     Br  0.90242722  0.64775520  0.74883521    -0.01500
Br2498     Br  0.89953602  0.67354267  0.69660722    -0.01500
C2499       C  0.83403817  0.71023373  0.60972816    -0.02600
C2500       C  0.83973013  0.69885780  0.63154772     0.07100
C2501       C  0.84144187  0.67360466  0.63209163    -0.02700
C2502       C  0.84005357  0.66023624  0.61065229    -0.02700
C2503       C  0.83484283  0.67171323  0.58883037     0.07200
C2504       C  0.83106239  0.69662196  0.58860377    -0.02900
Br2505     Br  0.82310715  0.71227048  0.55904232    -0.01500
Br2506     Br  0.83059496  0.74466004  0.60863838    -0.01500
Br2507     Br  0.84654162  0.62627510  0.61105652    -0.01500
Br2508     Br  0.84630452  0.65697818  0.66178915    -0.01500
C2509       C  0.91392994  0.75768979  0.65501503    -0.02600
C2510       C  0.89722351  0.75730080  0.67412995     0.07100
C2511       C  0.90229020  0.77217208  0.69425005    -0.02700
C2512       C  0.92036184  0.78985548  0.69314638    -0.02700
C2513       C  0.93303895  0.79389823  0.67130465     0.07200
C2514       C  0.92948938  0.77739149  0.65216542    -0.02900
Br2515     Br  0.94575551  0.78009113  0.62160558    -0.01500
Br2516     Br  0.92272752  0.72857340  0.63821838    -0.01500
Br2517     Br  0.92684346  0.80769251  0.72257408    -0.01500
Br2518     Br  0.88661719  0.76728828  0.72482077    -0.01500
C2519       C  0.76686743  0.79351999  0.41275785    -0.02600
C2520       C  0.76591417  0.81452365  0.39852015     0.07100
C2521       C  0.78067521  0.81433420  0.37788337    -0.02700
C2522       C  0.80129492  0.79968673  0.37715092    -0.02700
C2523       C  0.80592669  0.78289066  0.39558215     0.07200
C2524       C  0.78762646  0.77908426  0.41276166    -0.02900
Br2525     Br  0.79080617  0.75552478  0.43763607    -0.01500
Br2526     Br  0.73749758  0.77924125  0.42472128    -0.01500
Br2527     Br  0.82232749  0.80269097  0.35003080    -0.01500
Br2528     Br  0.76951750  0.82731104  0.34788561    -0.01500
C2529       C  0.70045889  0.88224285  0.35513720    -0.02600
C2530       C  0.70702633  0.86047220  0.36583154     0.07100
C2531       C  0.69827916  0.83872858  0.35618963    -0.02700
C2532       C  0.68227005  0.83905452  0.33673745    -0.02700
C2533       C  0.67253908  0.86090327  0.32900826     0.07200
C2534       C  0.68231169  0.88259776  0.33771333    -0.02900
Br2535     Br  0.66982825  0.91294467  0.32731083    -0.01500
Br2536     Br  0.71563477  0.91168834  0.36477603    -0.01500
Br2537     Br  0.67412607  0.80978405  0.32044273    -0.01500
Br2538     Br  0.70659022  0.80859278  0.37061675    -0.01500
C2539       C  0.71515572  0.84876630  0.47736744    -0.02600
C2540       C  0.70903198  0.86133775  0.45611920     0.07100
C2541       C  0.68821885  0.87613876  0.45715099    -0.02700
C2542       C  0.67126066  0.87340874  0.47560034    -0.02700
C2543       C  0.67559013  0.85753742  0.49451182     0.07200
C2544       C  0.69800735  0.84599719  0.49594120    -0.02900
Br2545     Br  0.70572585  0.82762615  0.52410235    -0.01500
Br2546     Br  0.74806896  0.84029592  0.48416104    -0.01500
Br2547     Br  0.64121725  0.89071124  0.47413016    -0.01500
Br2548     Br  0.68279913  0.90195442  0.43487733    -0.01500
C2549       C  0.76100456  0.92706005  0.40473969    -0.02600
C2550       C  0.76882535  0.90291446  0.40120402     0.07100
C2551       C  0.79118465  0.89930555  0.38952986    -0.02700
C2552       C  0.80455853  0.91894436  0.38061300    -0.02700
C2553       C  0.79670649  0.94255681  0.38459963     0.07200
C2554       C  0.77482887  0.94653258  0.39627629    -0.02900
Br2555     Br  0.76335931  0.97913024  0.39932355    -0.01500
Br2556     Br  0.73152619  0.93509314  0.42083812    -0.01500
Br2557     Br  0.83393173  0.91356874  0.36299046    -0.01500
Br2558     Br  0.80566192  0.86806136  0.38837693    -0.01500
C2559       C  0.61575400  0.80130325  0.83861218    -0.02600
C2560       C  0.63175216  0.80254244  0.81910564     0.07100
C2561       C  0.65182873  0.78751966  0.81894584    -0.02700
C2562       C  0.65313823  0.76813815  0.83497500    -0.02700
C2563       C  0.63828494  0.76752475  0.85593294     0.07200
C2564       C  0.61956418  0.78496849  0.85733828    -0.02900
Br2565     Br  0.59779054  0.78738385  0.88426321    -0.01500
Br2566     Br  0.58962316  0.82390350  0.84107057    -0.01500
Br2567     Br  0.66978191  0.74073136  0.82211936    -0.01500
Br2568     Br  0.67862930  0.79403371  0.79810640    -0.01500
C2569       C  0.67542969  0.86100036  0.74355176    -0.02600
C2570       C  0.66259574  0.83993608  0.74890559     0.07100
C2571       C  0.66975224  0.81811961  0.73854495    -0.02700
C2572       C  0.68993702  0.81705915  0.72343028    -0.02700
C2573       C  0.70306433  0.83839338  0.71741718     0.07200
C2574       C  0.69520464  0.86044246  0.72758978    -0.02900
Br2575     Br  0.71093619  0.89039303  0.72057809    -0.01500
Br2576     Br  0.66526348  0.89086905  0.75770952    -0.01500
Br2577     Br  0.69773907  0.78537764  0.71121762    -0.01500
Br2578     Br  0.65161376  0.78910877  0.74482161    -0.01500
C2579       C  0.55135484  0.81913896  0.72112147    -0.02600
C2580       C  0.53132256  0.83215543  0.72893474     0.07100
C2581       C  0.53033721  0.84073739  0.75256551    -0.02700
C2582       C  0.55074332  0.83916092  0.76731500    -0.02700
C2583       C  0.57279839  0.83065595  0.75771298     0.07200
C2584       C  0.57147924  0.81728410  0.73599247    -0.02900
Br2585     Br  0.59452567  0.79305027  0.72787469    -0.01500
Br2586     Br  0.55153178  0.80407832  0.68977073    -0.01500
Br2587     Br  0.54617744  0.84346403  0.80127087    -0.01500
Br2588     Br  0.50039485  0.85290375  0.76506722    -0.01500
C2589       C  0.63707549  0.88065324  0.83581691    -0.02600
C2590       C  0.62583657  0.88308955  0.81304060     0.07100
C2591       C  0.61795867  0.90637013  0.80622472    -0.02700
C2592       C  0.61986575  0.92597175  0.82226309    -0.02700
C2593       C  0.63007030  0.92297359  0.84505789     0.07200
C2594       C  0.63868392  0.90035798  0.85172069    -0.02900
Br2595     Br  0.65097228  0.89601909  0.88379875    -0.01500
Br2596     Br  0.65019275  0.85084396  0.84685337    -0.01500
Br2597     Br  0.60867196  0.95730786  0.81298244    -0.01500
Br2598     Br  0.60586754  0.91265273  0.77439040    -0.01500
C2599       C  0.80096558  0.31951974  0.84405565    -0.02600
C2600       C  0.77876121  0.33126744  0.84153225     0.07100
C2601       C  0.77216623  0.33874823  0.81840861    -0.02700
C2602       C  0.78872714  0.33730430  0.79916646    -0.02700
C2603       C  0.81304111  0.33051820  0.80294929     0.07200
C2604       C  0.81866247  0.32081229  0.82583284    -0.02900
Br2605     Br  0.85006412  0.30928173  0.83401656    -0.01500
Br2606     Br  0.80544540  0.29749523  0.87028942    -0.01500
Br2607     Br  0.77649794  0.34123637  0.76728591    -0.01500
Br2608     Br  0.73961006  0.34903725  0.81251935    -0.01500
C2609       C  0.87901225  0.29206894  0.72038421    -0.02600
C2610       C  0.85863534  0.29361472  0.73550351     0.07100
C2611       C  0.84011799  0.27642596  0.73301315    -0.02700
C2612       C  0.84083660  0.25944514  0.71407768    -0.02700
C2613       C  0.85948058  0.26033245  0.69691907     0.07200
C2614       C  0.87928751  0.27578847  0.70108356    -0.02900
Br2615     Br  0.90634909  0.27606447  0.67929926    -0.01500
Br2616     Br  0.90599083  0.31373267  0.72471683    -0.01500
Br2617     Br  0.81543663  0.23619690  0.71077093    -0.01500
Br2618     Br  0.81241526  0.27803203  0.75367075    -0.01500
C2619       C  0.82961541  0.40852598  0.71110439    -0.02600
C2620       C  0.84838879  0.42580858  0.71053363     0.07100
C2621       C  0.86991761  0.42061630  0.72283790    -0.02700
C2622       C  0.87304133  0.39827154  0.73423746    -0.02700
C2623       C  0.85308396  0.38259493  0.73808197     0.07200
C2624       C  0.83201199  0.38726349  0.72450043    -0.02900
Br2625     Br  0.80751215  0.36291488  0.72019106    -0.01500
Br2626     Br  0.80064782  0.41242291  0.69223938    -0.01500
Br2627     Br  0.90585226  0.38711132  0.73579479    -0.01500
Br2628     Br  0.89557810  0.44406015  0.72496867    -0.01500
C2629       C  0.89870344  0.34768484  0.81998861    -0.02600
C2630       C  0.89472839  0.33054796  0.80167491     0.07100
C2631       C  0.90986810  0.31032731  0.80035160    -0.02700
C2632       C  0.93062124  0.30900478  0.81479556    -0.02700
C2633       C  0.93569504  0.32720774  0.83186798     0.07200
C2634       C  0.91886218  0.34598808  0.83506055    -0.02900
Br2635     Br  0.92210032  0.36912002  0.86086077    -0.01500
Br2636     Br  0.87533047  0.37268394  0.82583215    -0.01500
Br2637     Br  0.95257871  0.28270114  0.80969890    -0.01500
Br2638     Br  0.90240145  0.28388493  0.77931889    -0.01500
C2639       C  0.78954274  0.64029152  0.85497538    -0.02600
C2640       C  0.77127779  0.62269090  0.85596214     0.07100
C2641       C  0.76689371  0.61002195  0.83413680    -0.02700
C2642       C  0.78430968  0.61015694  0.81581044    -0.02700
C2643       C  0.80759663  0.61948865  0.82050111     0.07200
C2644       C  0.80883346  0.63730673  0.83882874    -0.02900
Br2645     Br  0.83483871  0.66013888  0.84080338    -0.01500
Br2646     Br  0.78485438  0.67179481  0.86871745    -0.01500
Br2647     Br  0.77348770  0.60395444  0.78330799    -0.01500
Br2648     Br  0.73592645  0.59600550  0.82643148    -0.01500
C2649       C  0.70330801  0.66403382  0.87954795    -0.02600
C2650       C  0.71434754  0.65851807  0.90149172     0.07100
C2651       C  0.71063932  0.67372099  0.92129473    -0.02700
C2652       C  0.69502113  0.69351800  0.91950430    -0.02700
C2653       C  0.68223019  0.69769847  0.89803423     0.07200
C2654       C  0.68640005  0.68251251  0.87810660    -0.02900
Br2655     Br  0.66646046  0.68399818  0.84977957    -0.01500
Br2656     Br  0.71197827  0.64726815  0.85079251    -0.01500
Br2657     Br  0.69173291  0.71467432  0.94659350    -0.01500
Br2658     Br  0.72712563  0.66743390  0.95083457    -0.01500
C2659       C  0.71144283  0.52499084  0.91039658    -0.02600
C2660       C  0.68899640  0.52539535  0.89908951     0.07100
C2661       C  0.68146807  0.54602476  0.88711260    -0.02700
C2662       C  0.69571116  0.56680495  0.88757758    -0.02700
C2663       C  0.71703151  0.56789007  0.90180603     0.07200
C2664       C  0.72608367  0.54571705  0.91063339    -0.02900
Br2665     Br  0.75974420  0.54104864  0.91759704    -0.01500
Br2666     Br  0.72272440  0.49523634  0.92383985    -0.01500
Br2667     Br  0.68654022  0.59172191  0.86545220    -0.01500
Br2668     Br  0.65117450  0.54593391  0.87003603    -0.01500
C2669       C  0.80195796  0.63259473  0.93721148    -0.02600
C2670       C  0.77900452  0.62340222  0.94318519     0.07100
C2671       C  0.77354467  0.61982834  0.96783116    -0.02700
C2672       C  0.79135304  0.62371783  0.98539617    -0.02700
C2673       C  0.81307812  0.63524330  0.97928189     0.07200
C2674       C  0.81771015  0.64080557  0.95516080    -0.02900
Br2675     Br  0.84643860  0.65829978  0.94630889    -0.01500
Br2676     Br  0.81463975  0.62904368  0.90546928    -0.01500
Br2677     Br  0.78612094  0.61257793  0.01767501    -0.01500
Br2678     Br  0.74175104  0.61059835  0.97849726    -0.01500
C2679       C  0.36965405  0.78495890  0.87812996    -0.02600
C2680       C  0.35722479  0.76306357  0.87499043     0.07100
C2681       C  0.34213050  0.76030015  0.85514470    -0.02700
C2682       C  0.34190170  0.77768573  0.83714595    -0.02700
C2683       C  0.35070251  0.80131224  0.84171758     0.07200
C2684       C  0.36611385  0.80414628  0.86200059    -0.02900
Br2685     Br  0.38561522  0.83237916  0.86685679    -0.01500
Br2686     Br  0.39085754  0.78900588  0.90531789    -0.01500
Br2687     Br  0.33701986  0.76533290  0.80500249    -0.01500
Br2688     Br  0.32127736  0.73294887  0.85203340    -0.01500
C2689       C  0.32125221  0.67817385  0.88119907    -0.02600
C2690       C  0.32132380  0.69278243  0.90209172     0.07100
C2691       C  0.29985575  0.69452766  0.91566506    -0.02700
C2692       C  0.27980118  0.67998160  0.90978921    -0.02700
C2693       C  0.28168851  0.66232884  0.89182097     0.07200
C2694       C  0.30116971  0.66375763  0.87567542    -0.02900
Br2695     Br  0.30041085  0.64643346  0.84552339    -0.01500
Br2696     Br  0.34824849  0.67781843  0.85930846    -0.01500
Br2697     Br  0.24847968  0.68757827  0.92236255    -0.01500
Br2698     Br  0.29778157  0.71566798  0.94299434    -0.01500
C2699       C  0.42404411  0.69363524  0.88920091    -0.02600
C2700       C  0.41092515  0.69780441  0.91090800     0.07100
C2701       C  0.41846591  0.68441076  0.93123707    -0.02700
C2702       C  0.43966711  0.67031800  0.93079226    -0.02700
C2703       C  0.45326492  0.66757374  0.90937575     0.07200
C2704       C  0.44595895  0.68094042  0.88918840    -0.02900
Br2705     Br  0.46641129  0.68361747  0.86113815    -0.01500
Br2706     Br  0.41031966  0.69838260  0.85771525    -0.01500
Br2707     Br  0.44951266  0.65523954  0.96037701    -0.01500
Br2708     Br  0.39776641  0.68098707  0.95879358    -0.01500
C2709       C  0.36234412  0.75700579  0.97652896    -0.02600
C2710       C  0.35342397  0.75918703  0.95278602     0.07100
C2711       C  0.34076093  0.78085212  0.94728873    -0.02700
C2712       C  0.33989119  0.79995915  0.96403603    -0.02700
C2713       C  0.35244212  0.79862360  0.98573976     0.07200
C2714       C  0.36358317  0.77702173  0.99203671    -0.02900
Br2715     Br  0.38012456  0.77455841  0.02229652    -0.01500
Br2716     Br  0.36893006  0.72596639  0.98988686    -0.01500
Br2717     Br  0.32221395  0.82896013  0.95694247    -0.01500
Br2718     Br  0.32374202  0.78656077  0.91785758    -0.01500
C2719       C  0.80208671  0.62080385  0.21384446    -0.02600
C2720       C  0.78406649  0.63854162  0.21209725     0.07100
C2721       C  0.77976507  0.65358806  0.23214859    -0.02700
C2722       C  0.79532636  0.65289245  0.25213320    -0.02700
C2723       C  0.81557532  0.63794550  0.25168821     0.07200
C2724       C  0.81624564  0.61960135  0.23446186    -0.02900
Br2725     Br  0.83379519  0.59104691  0.24110428    -0.01500
Br2726     Br  0.80944268  0.59895110  0.18777973    -0.01500
Br2727     Br  0.78692769  0.66944153  0.28110266    -0.01500
Br2728     Br  0.75469996  0.67718597  0.23158114    -0.01500
C2729       C  0.79354398  0.66012609  0.08039624    -0.02600
C2730       C  0.81827970  0.65649258  0.08395868     0.07100
C2731       C  0.82722050  0.65596584  0.10739196    -0.02700
C2732       C  0.81191608  0.66109098  0.12641603    -0.02700
C2733       C  0.78693241  0.65718228  0.12374069     0.07200
C2734       C  0.77760657  0.65854604  0.10010766    -0.02900
Br2735     Br  0.74360469  0.65935930  0.09418302    -0.01500
Br2736     Br  0.78171256  0.66690511  0.04878247    -0.01500
Br2737     Br  0.82434807  0.68323914  0.15020583    -0.01500
Br2738     Br  0.85954355  0.64654368  0.11456233    -0.01500
C2739       C  0.70419894  0.60256582  0.14844530    -0.02600
C2740       C  0.72422011  0.60293529  0.16395392     0.07100
C2741       C  0.72705674  0.58390230  0.18031982    -0.02700
C2742       C  0.71138801  0.56391772  0.17986067    -0.02700
C2743       C  0.69205955  0.56310613  0.16357047     0.07200
C2744       C  0.68777729  0.58324496  0.14891929    -0.02900
Br2745     Br  0.65795382  0.58579015  0.13140316    -0.01500
Br2746     Br  0.69805315  0.62926216  0.12752322    -0.01500
Br2747     Br  0.71687140  0.53773524  0.20161646    -0.01500
Br2748     Br  0.75230155  0.58464186  0.20359696    -0.01500
C2749       C  0.29929961  0.72276208  0.17799911    -0.02600
C2750       C  0.32200494  0.71750279  0.16778267     0.07100
C2751       C  0.32395313  0.69712103  0.15244438    -0.02700
C2752       C  0.30427002  0.68142916  0.14937421    -0.02700
C2753       C  0.28262846  0.68540238  0.16188231     0.07200
C2754       C  0.27947173  0.70746966  0.17375600    -0.02900
Br2755     Br  0.24738625  0.71869813  0.18035645    -0.01500
Br2756     Br  0.29480436  0.74989264  0.19898747    -0.01500
Br2757     Br  0.30602886  0.65606140  0.12563139    -0.01500
Br2758     Br  0.35281510  0.69086343  0.13396533    -0.01500
C2759       C  0.43244428  0.73408245  0.17687034    -0.02600
C2760       C  0.41019092  0.72774431  0.18756032     0.07100
C2761       C  0.41028195  0.70812891  0.20374979    -0.02700
C2762       C  0.42945476  0.69175777  0.20365458    -0.02700
C2763       C  0.44922508  0.69542995  0.18822530     0.07200
C2764       C  0.45124393  0.71732393  0.17585464    -0.02900
Br2765     Br  0.48018097  0.72497328  0.15826484    -0.01500
Br2766     Br  0.43985582  0.76704782  0.16933149    -0.01500
Br2767     Br  0.42748928  0.66352231  0.22358705    -0.01500
Br2768     Br  0.38513961  0.70387815  0.22724208    -0.01500
C2769       C  0.34595966  0.78089088  0.23757761    -0.02600
C2770       C  0.34599870  0.78668702  0.21295223     0.07100
C2771       C  0.33911072  0.81011456  0.20646772    -0.02700
C2772       C  0.33679880  0.82821067  0.22422117    -0.02700
C2773       C  0.34286019  0.82339207  0.24843684     0.07200
C2774       C  0.34529550  0.79909324  0.25517478    -0.02900
Br2775     Br  0.34737568  0.79035402  0.28858297    -0.01500
Br2776     Br  0.34546995  0.74778976  0.24726696    -0.01500
Br2777     Br  0.32513949  0.85906866  0.21442267    -0.01500
Br2778     Br  0.33323653  0.81818285  0.17348502    -0.01500
C2779       C  0.34626369  0.78946134  0.09074171    -0.02600
C2780       C  0.35929257  0.81122589  0.08974961     0.07100
C2781       C  0.37411145  0.81781993  0.10923404    -0.02700
C2782       C  0.37572605  0.80287437  0.12949650    -0.02700
C2783       C  0.36235208  0.78125490  0.13070233     0.07200
C2784       C  0.34763110  0.77469924  0.11115802    -0.02900
Br2785     Br  0.32992080  0.74505861  0.11156511    -0.01500
Br2786     Br  0.32767647  0.77893069  0.06340399    -0.01500
Br2787     Br  0.39565712  0.81275703  0.15608527    -0.01500
Br2788     Br  0.39159501  0.84786245  0.10880559    -0.01500
C2789       C  0.14942715  0.29123580  0.71467244    -0.02600
C2790       C  0.12792015  0.29917623  0.72558201     0.07100
C2791       C  0.10603937  0.28925087  0.71754152    -0.02700
C2792       C  0.10546877  0.27454468  0.69704821    -0.02700
C2793       C  0.12686480  0.26441088  0.68819689     0.07200
C2794       C  0.14892219  0.27230993  0.69780527    -0.02900
Br2795     Br  0.17854284  0.25964779  0.68536203    -0.01500
Br2796     Br  0.17897956  0.30873305  0.71903661    -0.01500
Br2797     Br  0.07636225  0.27346689  0.67825852    -0.01500
Br2798     Br  0.07649094  0.29697500  0.73321079    -0.01500
C2799       C  0.14988479  0.41614779  0.70200349    -0.02600
C2800       C  0.12990368  0.43160876  0.69931648     0.07100
C2801       C  0.10835661  0.42567300  0.71138339    -0.02700
C2802       C  0.10562550  0.40328123  0.72252162    -0.02700
C2803       C  0.12581457  0.38859525  0.72720082     0.07200
C2804       C  0.14783473  0.39494717  0.71562772    -0.02900
Br2805     Br  0.17525970  0.37357214  0.71551648    -0.01500
Br2806     Br  0.18079597  0.42313324  0.68736227    -0.01500
Br2807     Br  0.07342855  0.39083402  0.72214163    -0.01500
Br2808     Br  0.08217180  0.44827785  0.71429791    -0.01500
C2809       C  0.16375553  0.36171245  0.81095054    -0.02600
C2810       C  0.16420199  0.34275742  0.79406448     0.07100
C2811       C  0.18428539  0.32758612  0.79384867    -0.02700
C2812       C  0.20478148  0.33312062  0.80767971    -0.02700
C2813       C  0.20361065  0.35043456  0.82637150     0.07200
C2814       C  0.18333235  0.36589386  0.82646067    -0.02900
Br2815     Br  0.18228468  0.39410697  0.84659164    -0.01500
Br2816     Br  0.13514914  0.38104716  0.81422606    -0.01500
Br2817     Br  0.23527933  0.32346194  0.79431849    -0.01500
Br2818     Br  0.18316650  0.29747608  0.77725864    -0.01500
C2819       C  0.05878513  0.33950240  0.78446846    -0.02600
C2820       C  0.08313095  0.33349034  0.78971021     0.07100
C2821       C  0.08784979  0.32318108  0.81258771    -0.02700
C2822       C  0.06910643  0.32026153  0.82953002    -0.02700
C2823       C  0.04592288  0.32882034  0.82467350     0.07200
C2824       C  0.04086800  0.33856783  0.80225107    -0.02900
Br2825     Br  0.00881460  0.35026286  0.79586311    -0.01500
Br2826     Br  0.04799746  0.34646757  0.75259260    -0.01500
Br2827     Br  0.07532344  0.30556840  0.86021210    -0.01500
Br2828     Br  0.11949994  0.31374710  0.82262966    -0.01500
C2829       C  0.63583593  0.17860998  0.80545326    -0.02600
C2830       C  0.64090326  0.15449069  0.81189471     0.07100
C2831       C  0.65205899  0.15138601  0.83465507    -0.02700
C2832       C  0.64916427  0.16852410  0.85305948    -0.02700
C2833       C  0.63939619  0.19112180  0.84769539     0.07200
C2834       C  0.63602294  0.19677205  0.82324927    -0.02900
Br2835     Br  0.63426347  0.22997779  0.81382462    -0.01500
Br2836     Br  0.63185679  0.18912794  0.77287353    -0.01500
Br2837     Br  0.65832196  0.15979731  0.88511201    -0.01500
Br2838     Br  0.67559469  0.12642221  0.83951369    -0.01500
C2839       C  0.64076711  0.04394269  0.80253401    -0.02600
C2840       C  0.62730222  0.06518742  0.80667153     0.07100
C2841       C  0.61168341  0.06545359  0.82696637    -0.02700
C2842       C  0.61421848  0.04851744  0.84528923    -0.02700
C2843       C  0.62992967  0.02907789  0.84238100     0.07200
C2844       C  0.64283655  0.02654506  0.82075806    -0.02900
Br2845     Br  0.66269993  0.99863792  0.81558687    -0.01500
Br2846     Br  0.65074495  0.03458345  0.77070801    -0.01500
Br2847     Br  0.59771675  0.05353822  0.87547420    -0.01500
Br2848     Br  0.58564888  0.08825803  0.82992273    -0.01500
C2849       C  0.58656711  0.10350857  0.72616125    -0.02600
C2850       C  0.58895455  0.11910671  0.74608821     0.07100
C2851       C  0.57209748  0.13760288  0.74918387    -0.02700
C2852       C  0.55259081  0.14007698  0.73311013    -0.02700
C2853       C  0.54929099  0.12356022  0.71394996     0.07200
C2854       C  0.56707339  0.10577568  0.71017716    -0.02900
Br2855     Br  0.56604373  0.08512367  0.68222752    -0.01500
Br2856     Br  0.61047286  0.07907687  0.72030571    -0.01500
Br2857     Br  0.53005507  0.16572772  0.73838906    -0.01500
Br2858     Br  0.57474308  0.15851168  0.77661242    -0.01500
C2859       C  0.70078164  0.14180023  0.29416210    -0.02600
C2860       C  0.67670427  0.14932018  0.29715431     0.07100
C2861       C  0.67059197  0.16068231  0.31905986    -0.02700
C2862       C  0.68759064  0.16205937  0.33770819    -0.02700
C2863       C  0.70884602  0.14795494  0.33694685     0.07200
C2864       C  0.71582318  0.13866746  0.31419290    -0.02900
Br2865     Br  0.74434913  0.11992190  0.30877167    -0.01500
Br2866     Br  0.71372682  0.13660803  0.26228953    -0.01500
Br2867     Br  0.68201293  0.18525689  0.36311328    -0.01500
Br2868     Br  0.63914787  0.17356594  0.32558355    -0.01500
C2869       C  0.69684104  0.15337257  0.46591384    -0.02600
C2870       C  0.68288780  0.13259491  0.46998724     0.07100
C2871       C  0.68230103  0.11447260  0.45207194    -0.02700
C2872       C  0.69543873  0.11732011  0.43065376    -0.02700
C2873       C  0.70968860  0.13828475  0.42666312     0.07200
C2874       C  0.70764888  0.15727687  0.44352894    -0.02900
Br2875     Br  0.71059811  0.19042868  0.43438176    -0.01500
Br2876     Br  0.70241147  0.17672738  0.49104946    -0.01500
Br2877     Br  0.69100138  0.09309851  0.40584458    -0.01500
Br2878     Br  0.66280393  0.08568217  0.45554719    -0.01500
C2879       C  0.79804966  0.17362407  0.36352303    -0.02600
C2880       C  0.77552477  0.17920244  0.37415557     0.07100
C2881       C  0.77030131  0.20363909  0.37845205    -0.02700
C2882       C  0.78847194  0.22123729  0.37704658    -0.02700
C2883       C  0.81184305  0.21511072  0.36935385     0.07200
C2884       C  0.81547398  0.19176527  0.35988961    -0.02900
Br2885     Br  0.84312726  0.18381780  0.34046605    -0.01500
Br2886     Br  0.80670838  0.14148431  0.35401400    -0.01500
Br2887     Br  0.78041886  0.25423616  0.38384273    -0.01500
Br2888     Br  0.73768183  0.21384884  0.38351329    -0.01500
C2889       C  0.76056023  0.07635513  0.36062308    -0.02600
C2890       C  0.76878014  0.09614140  0.37419467     0.07100
C2891       C  0.79065618  0.09442807  0.38675462    -0.02700
C2892       C  0.80541446  0.07435258  0.38353752    -0.02700
C2893       C  0.79725090  0.05438969  0.37001060     0.07200
C2894       C  0.77494314  0.05571568  0.35810102    -0.02900
Br2895     Br  0.76330369  0.02896508  0.33935858    -0.01500
Br2896     Br  0.72799116  0.07588556  0.34891719    -0.01500
Br2897     Br  0.83754599  0.07529061  0.39666615    -0.01500
Br2898     Br  0.79954466  0.11841137  0.41041263    -0.01500
C2899       C  0.16637914  0.79318567  0.65637089    -0.02600
C2900       C  0.16698469  0.77003343  0.66677734     0.07100
C2901       C  0.18871073  0.76275203  0.67754085    -0.02700
C2902       C  0.20832508  0.77888536  0.67890514    -0.02700
C2903       C  0.20510783  0.80369035  0.67438869     0.07200
C2904       C  0.18372820  0.81059177  0.66255429    -0.02900
Br2905     Br  0.17550732  0.84353019  0.65647085    -0.01500
Br2906     Br  0.14261649  0.80110400  0.63235125    -0.01500
Br2907     Br  0.23996995  0.76611757  0.68454977    -0.01500
Br2908     Br  0.19208844  0.73178281  0.69228899    -0.01500
C2909       C  0.05641855  0.80078009  0.69324995    -0.02600
C2910       C  0.03681163  0.79639744  0.67790036     0.07100
C2911       C  0.03556019  0.77453239  0.66526380    -0.02700
C2912       C  0.05464307  0.75816468  0.66642795    -0.02700
C2913       C  0.07662199  0.76482606  0.67751909     0.07200
C2914       C  0.07602104  0.78485444  0.69350893    -0.02900
Br2915     Br  0.10030107  0.78982847  0.71782549    -0.01500
Br2916     Br  0.05722807  0.82931970  0.71307083    -0.01500
Br2917     Br  0.04800068  0.72535844  0.65748722    -0.01500
Br2918     Br  0.00721807  0.76637471  0.64696790    -0.01500
C2919       C  0.14274617  0.71604334  0.60483639    -0.02600
C2920       C  0.12596933  0.71012605  0.62284403     0.07100
C2921       C  0.11208094  0.68897495  0.62053045    -0.02700
C2922       C  0.11514647  0.67381580  0.60058908    -0.02700
C2923       C  0.13079798  0.68050195  0.58177733     0.07200
C2924       C  0.14489055  0.70153213  0.58418321    -0.02900
Br2925     Br  0.16622914  0.71145287  0.55878500    -0.01500
Br2926     Br  0.16204462  0.74464574  0.60774455    -0.01500
Br2927     Br  0.09896715  0.64300426  0.60012017    -0.01500
Br2928     Br  0.08929720  0.67995987  0.64510127    -0.01500
C2929       C  0.70913423  0.30093089  0.14045073    -0.02600
C2930       C  0.71032156  0.31831145  0.15891569     0.07100
C2931       C  0.69476460  0.31608771  0.17884765    -0.02700
C2932       C  0.67750339  0.29755156  0.17960759    -0.02700
C2933       C  0.67461434  0.28180901  0.15991953     0.07200
C2934       C  0.69134227  0.28274599  0.14097790    -0.02900
Br2935     Br  0.68887051  0.26017139  0.11489289    -0.01500
Br2936     Br  0.72993342  0.30341839  0.11300020    -0.01500
Br2937     Br  0.65715743  0.29420057  0.20748940    -0.01500
Br2938     Br  0.69563070  0.33946562  0.20451770    -0.01500
C2939       C  0.69865529  0.41052913  0.13626575    -0.02600
C2940       C  0.71976697  0.40858189  0.15054129     0.07100
C2941       C  0.72867490  0.43032570  0.16104065    -0.02700
C2942       C  0.71434477  0.45119008  0.16156468    -0.02700
C2943       C  0.69148410  0.45121921  0.15105042     0.07200
C2944       C  0.68395128  0.43098794  0.13785758    -0.02900
Br2945     Br  0.65274683  0.43064285  0.12277708    -0.01500
Br2946     Br  0.69074869  0.38709277  0.11183953    -0.01500
Br2947     Br  0.72660826  0.48061648  0.17522883    -0.01500
Br2948     Br  0.76163089  0.43433496  0.17091127    -0.01500
C2949       C  0.79918190  0.37315484  0.19142128    -0.02600
C2950       C  0.78010838  0.35667276  0.19395146     0.07100
C2951       C  0.78027056  0.34072105  0.21346165    -0.02700
C2952       C  0.79918483  0.34170656  0.23047644    -0.02700
C2953       C  0.81740153  0.35958543  0.22872053     0.07200
C2954       C  0.81622452  0.37595562  0.20958514    -0.02900
Br2955     Br  0.83559673  0.40452173  0.20928571    -0.01500
Br2956     Br  0.80372003  0.39061635  0.16192707    -0.01500
Br2957     Br  0.79966795  0.31832906  0.25567624    -0.01500
Br2958     Br  0.75495524  0.31725579  0.21650201    -0.01500
C2959       C  0.79950638  0.33559056  0.11879390    -0.02600
C2960       C  0.77727103  0.34720827  0.11401043     0.07100
C2961       C  0.77169417  0.35217650  0.08970449    -0.02700
C2962       C  0.78913746  0.34967789  0.07155398    -0.02700
C2963       C  0.81137187  0.33910524  0.07657477     0.07200
C2964       C  0.81600158  0.33097478  0.09997446    -0.02900
Br2965     Br  0.84571359  0.31436217  0.10638354    -0.01500
Br2966     Br  0.80887903  0.32609660  0.15055907    -0.01500
Br2967     Br  0.78233232  0.36053996  0.03951216    -0.01500
Br2968     Br  0.73931333  0.35960200  0.08013206    -0.01500
C2969       C  0.70842706  0.72676819  0.18179143    -0.02600
C2970       C  0.68497423  0.71931965  0.18783459     0.07100
C2971       C  0.68106266  0.69535272  0.19431162    -0.02700
C2972       C  0.69799838  0.67777428  0.18823702    -0.02700
C2973       C  0.72112931  0.68470347  0.17992559     0.07200
C2974       C  0.72673539  0.70962333  0.17908061    -0.02900
Br2975     Br  0.75964472  0.72082410  0.17662002    -0.01500
Br2976     Br  0.71587360  0.76050422  0.17847485    -0.01500
Br2977     Br  0.68743378  0.64493476  0.19022169    -0.01500
Br2978     Br  0.65481963  0.68739604  0.21559896    -0.01500
C2979       C  0.63509100  0.78034745  0.25467608    -0.02600
C2980       C  0.64318620  0.78584528  0.23123468     0.07100
C2981       C  0.65192596  0.80937214  0.22717710    -0.02700
C2982       C  0.64514976  0.82816195  0.24236557    -0.02700
C2983       C  0.63456151  0.82334979  0.26476074     0.07200
C2984       C  0.63034646  0.79899875  0.27123474    -0.02900
Br2985     Br  0.61799611  0.79024958  0.30251373    -0.01500
Br2986     Br  0.63460368  0.74755132  0.26592991    -0.01500
Br2987     Br  0.64684295  0.86012187  0.22973767    -0.01500
Br2988     Br  0.67658379  0.81591975  0.20349520    -0.01500
C2989       C  0.65340955  0.76663978  0.12337077    -0.02600
C2990       C  0.63639866  0.77220670  0.14143086     0.07100
C2991       C  0.61698602  0.78742845  0.13565000    -0.02700
C2992       C  0.61587586  0.79865581  0.11320439    -0.02700
C2993       C  0.63375262  0.79417546  0.09581844     0.07200
C2994       C  0.65200325  0.77751130  0.10068583    -0.02900
Br2995     Br  0.67514422  0.76935168  0.07609760    -0.01500
Br2996     Br  0.67960665  0.74513997  0.12924621    -0.01500
Br2997     Br  0.59077557  0.82191161  0.10753452    -0.01500
Br2998     Br  0.59119452  0.79302506  0.15798360    -0.01500
C2999       C  0.59964613  0.69536547  0.17443386    -0.02600
C3000       C  0.59853448  0.71805084  0.18655439     0.07100
C3001       C  0.57536317  0.72595805  0.19442631    -0.02700
C3002       C  0.55542572  0.71038722  0.19397551    -0.02700
C3003       C  0.55699357  0.68808101  0.18263714     0.07200
C3004       C  0.57873273  0.68102515  0.17195573    -0.02900
Br3005     Br  0.57982208  0.65096644  0.15446906    -0.01500
Br3006     Br  0.62870014  0.68210565  0.16095304    -0.01500
Br3007     Br  0.52529930  0.71987824  0.20842661    -0.01500
Br3008     Br  0.56848933  0.75888592  0.20304406    -0.01500
C3009       C  0.13415936  0.68549171  0.74612371    -0.02600
C3010       C  0.13557953  0.66129765  0.73835410     0.07100
C3011       C  0.13690681  0.65682919  0.71341794    -0.02700
C3012       C  0.13768326  0.67596098  0.69685583    -0.02700
C3013       C  0.13356361  0.69977878  0.70452325     0.07200
C3014       C  0.13290041  0.70440446  0.72942968    -0.02900
Br3015     Br  0.13238778  0.73714143  0.74092183    -0.01500
Br3016     Br  0.13260788  0.69328246  0.77974562    -0.01500
Br3017     Br  0.14717713  0.66903059  0.66441017    -0.01500
Br3018     Br  0.13704430  0.62465345  0.70109694    -0.01500
C3019       C  0.17769359  0.63935122  0.82801520    -0.02600
C3020       C  0.18010850  0.62396508  0.80769696     0.07100
C3021       C  0.20348809  0.61486393  0.80346230    -0.02700
C3022       C  0.22077200  0.61425952  0.82203879    -0.02700
C3023       C  0.21519012  0.62379338  0.84500429     0.07200
C3024       C  0.19526133  0.63959290  0.84618216    -0.02900
Br3025     Br  0.19323063  0.66431155  0.87082830    -0.01500
Br3026     Br  0.15223506  0.66278728  0.83045564    -0.01500
Br3027     Br  0.25337525  0.60548853  0.81361779    -0.01500
Br3028     Br  0.21455794  0.60962138  0.77127691    -0.01500
C3029       C  0.08676923  0.59736140  0.81431356    -0.02600
C3030       C  0.09071892  0.61560434  0.79711718     0.07100
C3031       C  0.07266968  0.63284336  0.79355066    -0.02700
C3032       C  0.05174264  0.63275373  0.80797799    -0.02700
C3033       C  0.04926224  0.61630244  0.82714560     0.07200
C3034       C  0.06687467  0.59834962  0.82993709    -0.02900
Br3035     Br  0.06594737  0.57669612  0.85689501    -0.01500
Br3036     Br  0.10890271  0.57081900  0.81685636    -0.01500
Br3037     Br  0.02650940  0.65535851  0.80118159    -0.01500
Br3038     Br  0.07716678  0.65777107  0.77017784    -0.01500
C3039       C  0.15584057  0.55223026  0.70744683    -0.02600
C3040       C  0.13422627  0.53878743  0.70434963     0.07100
C3041       C  0.11440328  0.54443666  0.71943526    -0.02700
C3042       C  0.11595997  0.56343210  0.73642334    -0.02700
C3043       C  0.13736363  0.57710289  0.73897034     0.07200
C3044       C  0.15694764  0.57152774  0.72381430    -0.02900
Br3045     Br  0.18483711  0.59219597  0.72275724    -0.01500
Br3046     Br  0.18509119  0.54512873  0.68981829    -0.01500
Br3047     Br  0.08839307  0.57006500  0.75621285    -0.01500
Br3048     Br  0.08529524  0.52526872  0.71862782    -0.01500
C3049       C  0.30555885  0.10470749  0.70382123    -0.02600
C3050       C  0.30219775  0.11837077  0.72506671     0.07100
C3051       C  0.27914270  0.12890500  0.72852306    -0.02700
C3052       C  0.26283591  0.13066996  0.70923104    -0.02700
C3053       C  0.26823453  0.12015928  0.68697324     0.07200
C3054       C  0.28953848  0.10678720  0.68452623    -0.02900
Br3055     Br  0.29693620  0.09064324  0.65468367    -0.01500
Br3056     Br  0.32861539  0.07901407  0.70235029    -0.01500
Br3057     Br  0.23228613  0.14626414  0.71355546    -0.01500
Br3058     Br  0.26690247  0.13562186  0.76028495    -0.01500
C3059       C  0.40087115  0.10092226  0.72983376    -0.02600
C3060       C  0.39245843  0.12163324  0.74153048     0.07100
C3061       C  0.40823393  0.14138848  0.74361222    -0.02700
C3062       C  0.43008165  0.14207189  0.73046987    -0.02700
C3063       C  0.43678842  0.12253614  0.71543507     0.07200
C3064       C  0.42254321  0.10121244  0.71667315    -0.02900
Br3065     Br  0.43129077  0.07173167  0.70037105    -0.01500
Br3066     Br  0.38359154  0.07125311  0.73372923    -0.01500
Br3067     Br  0.45094503  0.16961691  0.73440013    -0.01500
Br3068     Br  0.40083613  0.16685204  0.76564496    -0.01500
C3069       C  0.34229923  0.20661794  0.80671205    -0.02600
C3070       C  0.33573366  0.20059455  0.83053332     0.07100
C3071       C  0.32281619  0.17867337  0.83336602    -0.02700
C3072       C  0.32433963  0.16065001  0.81556833    -0.02700
C3073       C  0.33757465  0.16482703  0.79436159     0.07200
C3074       C  0.34336318  0.18876742  0.78875647    -0.02900
Br3075     Br  0.34889235  0.19780096  0.75577202    -0.01500
Br3076     Br  0.34474059  0.23956903  0.79706757    -0.01500
Br3077     Br  0.30498181  0.13186225  0.81856458    -0.01500
Br3078     Br  0.29772699  0.17550875  0.85729175    -0.01500
C3079       C  0.35295067  0.08750648  0.82173626    -0.02600
C3080       C  0.34471769  0.08226648  0.79793006     0.07100
C3081       C  0.33897363  0.05775426  0.79257241    -0.02700
C3082       C  0.33874230  0.04015751  0.81069207    -0.02700
C3083       C  0.34533038  0.04598640  0.83422081     0.07200
C3084       C  0.35338601  0.06936787  0.83943542    -0.02900
Br3085     Br  0.36486529  0.07654283  0.87139338    -0.01500
Br3086     Br  0.36367440  0.11886488  0.83218691    -0.01500
Br3087     Br  0.33075549  0.00719961  0.80311361    -0.01500
Br3088     Br  0.33341519  0.04636336  0.76027672    -0.01500
C3089       C  0.68631068  0.14375549  0.71071344    -0.02600
C3090       C  0.70899967  0.13286792  0.71219250     0.07100
C3091       C  0.71464397  0.12178776  0.73421310    -0.02700
C3092       C  0.69628734  0.11670116  0.75112337    -0.02700
C3093       C  0.67181687  0.12123678  0.74548077     0.07200
C3094       C  0.66720982  0.13553459  0.72497201    -0.02900
Br3095     Br  0.63549386  0.14210923  0.71296655    -0.01500
Br3096     Br  0.68245002  0.17280116  0.69235505    -0.01500
Br3097     Br  0.70550887  0.10556827  0.78250760    -0.01500
Br3098     Br  0.74768649  0.11708974  0.74301496    -0.01500
C3099       C  0.80092076  0.15839475  0.65396377    -0.02600
C3100       C  0.77703682  0.16536168  0.65895670     0.07100
C3101       C  0.77169940  0.19012732  0.65898711    -0.02700
C3102       C  0.79002841  0.20745656  0.65558344    -0.02700
C3103       C  0.81432976  0.20059168  0.65270689     0.07200
C3104       C  0.81950637  0.17573705  0.65251283    -0.02900
Br3105     Br  0.85195298  0.16440245  0.65132698    -0.01500
Br3106     Br  0.80888913  0.12535780  0.64768793    -0.01500
Br3107     Br  0.78138619  0.24073585  0.65681602    -0.01500
Br3108     Br  0.73873686  0.20061142  0.66180883    -0.01500
C3109       C  0.76351992  0.06551163  0.64555140    -0.02600
C3110       C  0.76761877  0.08251174  0.66387304     0.07100
C3111       C  0.78596120  0.07831521  0.68074267    -0.02700
C3112       C  0.79938539  0.05704874  0.67984576    -0.02700
C3113       C  0.79372078  0.03893404  0.66286683     0.07200
C3114       C  0.77549246  0.04329211  0.64583090    -0.02900
Br3115     Br  0.76543658  0.01841580  0.62376575    -0.01500
Br3116     Br  0.74248254  0.07272018  0.61932244    -0.01500
Br3117     Br  0.82667820  0.05411964  0.70105728    -0.01500
Br3118     Br  0.79440411  0.10272190  0.70399459    -0.01500
C3119       C  0.69136030  0.11015380  0.61904961    -0.02600
C3120       C  0.71047175  0.12681968  0.62190815     0.07100
C3121       C  0.71523106  0.14342833  0.60345667    -0.02700
C3122       C  0.70029249  0.14431146  0.58306654    -0.02700
C3123       C  0.68099089  0.12792273  0.58042468     0.07200
C3124       C  0.67667570  0.11081193  0.59858673    -0.02900
Br3125     Br  0.64919902  0.08941248  0.59692427    -0.01500
Br3126     Br  0.68515021  0.08577770  0.64300188    -0.01500
Br3127     Br  0.70642867  0.16828819  0.55893202    -0.01500
Br3128     Br  0.74174459  0.16561476  0.60607420    -0.01500
C3129       C  0.14993552  0.72375148  0.32743787    -0.02600
C3130       C  0.13087426  0.72217417  0.34420993     0.07100
C3131       C  0.11242951  0.70530401  0.33990772    -0.02700
C3132       C  0.11501893  0.68782739  0.32193663    -0.02700
C3133       C  0.13578861  0.68708479  0.30749223     0.07200
C3134       C  0.15180575  0.70671201  0.30862891    -0.02900
Br3135     Br  0.17531720  0.71113495  0.28389758    -0.01500
Br3136     Br  0.17441411  0.74800800  0.33055879    -0.01500
Br3137     Br  0.08950237  0.66525627  0.31691772    -0.01500
Br3138     Br  0.08313449  0.70605088  0.35824625    -0.01500
C3139       C  0.14486370  0.72949094  0.45410280    -0.02600
C3140       C  0.12822620  0.72743520  0.43493263     0.07100
C3141       C  0.10862634  0.71122782  0.43843385    -0.02700
C3142       C  0.10835986  0.69493153  0.45773511    -0.02700
C3143       C  0.12834994  0.69339102  0.47334665     0.07200
C3144       C  0.14658353  0.71112544  0.47135479    -0.02900
Br3145     Br  0.17379853  0.71180828  0.49277051    -0.01500
Br3146     Br  0.15871968  0.76009897  0.46306836    -0.01500
Br3147     Br  0.08021914  0.67458723  0.46165332    -0.01500
Br3148     Br  0.08046010  0.71196636  0.41830482    -0.01500
C3149       C  0.16776735  0.81110455  0.37067013    -0.02600
C3150       C  0.17262747  0.78750485  0.37879512     0.07100
C3151       C  0.19687930  0.78123371  0.38284938    -0.02700
C3152       C  0.21501169  0.79896836  0.38281155    -0.02700
C3153       C  0.20942695  0.82334158  0.37864271     0.07200
C3154       C  0.18615259  0.82876156  0.37023965    -0.02900
Br3155     Br  0.17861026  0.86022578  0.35830468    -0.01500
Br3156     Br  0.13600433  0.82073853  0.36122026    -0.01500
Br3157     Br  0.24783458  0.78934727  0.38779562    -0.01500
Br3158     Br  0.20585180  0.74810403  0.38785671    -0.01500
C3159       C  0.07475562  0.78669845  0.36111935    -0.02600
C3160       C  0.09019197  0.78839825  0.38102599     0.07100
C3161       C  0.08645150  0.80682699  0.39807499    -0.02700
C3162       C  0.06628767  0.82187078  0.39649966    -0.02700
C3163       C  0.04929248  0.81865527  0.37781165     0.07200
C3164       C  0.05412505  0.80125399  0.35975141    -0.02900
Br3165     Br  0.03215224  0.79572730  0.33344990    -0.01500
Br3166     Br  0.08160348  0.76456520  0.33543261    -0.01500
Br3167     Br  0.06332799  0.84756378  0.41972966    -0.01500
Br3168     Br  0.11009502  0.81269198  0.42293237    -0.01500
loop_ 
_geom_bond_atom_site_label_1 
_geom_bond_atom_site_label_2 
_geom_bond_distance 
_geom_bond_site_symmetry_2 
_ccdc_geom_bond_type 
C1            C2   1.540       .  S
C1            C7   1.526       .  S
C1            C5   1.549       .  S
C1         C3140   1.562       .  S
C2            H9   1.085       .  S
C2            C3   1.370       .  D
C3            C4   1.547       .  S
C3         C3130   1.501       .  S
C4            C8   1.551       .  S
C4            C6   1.546       .  S
C4           H10   1.107       .  S
C5           H11   1.074       .  S
C5            C6   1.374       .  D
C6         C3150   1.511       .  S
C7           H12   1.087       .  S
C7            C8   1.363       .  D
C8         C3160   1.496       .  S
C13          C14   1.539       .  S
C13          C19   1.538       .  S
C13          C17   1.538       .  S
C13        C3090   1.552       .  S
C14          H21   1.086       .  S
C14          C15   1.358       .  D
C15          C16   1.545       .  S
C15        C3120   1.496       .  S
C16          C20   1.553       .  S
C16          C18   1.548       .  S
C16          H22   1.108       .  S
C17          H23   1.086       .  S
C17          C18   1.366       .  D
C18        C3110   1.492       .  S
C19          H24   1.085       .  S
C19          C20   1.377       .  D
C20        C3100   1.510       .  S
C25          C26   1.541       .  S
C25          C31   1.546       .  S
C25          C29   1.529       .  S
C25        C3050   1.553       .  S
C26          H33   1.083       .  S
C26          C27   1.380       .  D
C27          C28   1.557       .  S
C27        C3080   1.532       .  S
C28          C32   1.544       .  S
C28          C30   1.561       .  S
C28          H34   1.099       .  S
C29          H35   1.084       .  S
C29          C30   1.358       .  D
C30        C3073   1.491       .  S
C31          H36   1.086       .  S
C31          C32   1.365       .  D
C32        C3060   1.509       .  S
C37          C38   1.550       .  S
C37          C43   1.530       .  S
C37          C41   1.532       .  S
C37        C3020   1.557       .  S
C38          H45   1.084       .  S
C38          C39   1.380       .  D
C39          C40   1.555       .  S
C39        C3043   1.516       .  S
C40          C44   1.556       .  S
C40          C42   1.560       .  S
C40          H46   1.109       .  S
C41          H47   1.086       .  S
C41          C42   1.367       .  D
C42        C3010   1.513       .  S
C43          H48   1.085       .  S
C43          C44   1.361       .  D
C44        C3030   1.502       .  S
C49          C50   1.545       .  S
C49          C55   1.546       .  S
C49          C53   1.516       .  S
C49        C2980   1.541       .  S
C50          H57   1.080       .  S
C50          C51   1.377       .  D
C51          C52   1.553       .  S
C51        C3000   1.525       .  S
C52          C56   1.534       .  S
C52          C54   1.563       .  S
C52          H58   1.097       .  S
C53          H59   1.088       .  S
C53          C54   1.357       .  D
C54        C2970   1.483       .  S
C55          H60   1.083       .  S
C55          C56   1.360       .  D
C56        C2990   1.500       .  S
C61          C62   1.538       .  S
C61          C67   1.537       .  S
C61          C65   1.540       .  S
C61        C2940   1.561       .  S
C62          H69   1.081       .  S
C62          C63   1.368       .  D
C63          C64   1.551       .  S
C63        C2950   1.494       .  S
C64          C68   1.547       .  S
C64          C66   1.552       .  S
C64          H70   1.106       .  S
C65          H71   1.086       .  S
C65          C66   1.377       .  D
C66        C2960   1.520       .  S
C67          H72   1.086       .  S
C67          C68   1.363       .  D
C68        C2930   1.496       .  S
C73          C74   1.544       .  S
C73          C79   1.532       .  S
C73          C77   1.530       .  S
C73        C2913   1.550       .  S
C74          H81   1.084       .  S
C74          C75   1.365       .  D
C75          C76   1.543       .  S
C75        C2920   1.489       .  S
C76          C80   1.555       .  S
C76          C78   1.557       .  S
C76          H82   1.105       .  S
C77          H83   1.086       .  S
C77          C78   1.371       .  D
C78        C3013   1.510       .  S
C79          H84   1.082       .  S
C79          C80   1.367       .  D
C80        C2900   1.511       .  S
C85          C86   1.523       .  S
C85          C91   1.530       .  S
C85          C89   1.553       .  S
C85        C2873   1.545       .  S
C86          H93   1.087       .  S
C86          C87   1.356       .  D
C87          C88   1.561       .  S
C87        C2890   1.483       .  S
C88          C92   1.550       .  S
C88          C90   1.537       .  S
C88          H94   1.091       .  S
C89          H95   1.083       .  S
C89          C90   1.374       .  D
C90        C2880   1.509       .  S
C91          H96   1.084       .  S
C91          C92   1.367       .  D
C92        C2863   1.520       .  S
C97          C98   1.520       .  S
C97         C103   1.536       .  S
C97         C101   1.558       .  S
C97        C2840   1.552       .  S
C98         H105   1.088       .  S
C98          C99   1.359       .  D
C99         C100   1.563       .  S
C99        C2850   1.503       .  S
C100        C104   1.558       .  S
C100        C102   1.537       .  S
C100        H106   1.079       .  S
C101        H107   1.076       .  S
C101        C102   1.378       .  D
C102       C3093   1.514       .  S
C103        H108   1.083       .  S
C103        C104   1.366       .  D
C104       C2830   1.534       .  S
C109        C110   1.549       .  S
C109        C115   1.524       .  S
C109        C113   1.531       .  S
C109       C2803   1.554       .  S
C110        H117   1.082       .  S
C110        C111   1.379       .  D
C111        C112   1.562       .  S
C111       C2820   1.525       .  S
C112        C116   1.553       .  S
C112        C114   1.562       .  S
C112        H118   1.105       .  S
C113        H119   1.088       .  S
C113        C114   1.364       .  D
C114       C2810   1.507       .  S
C115        H120   1.086       .  S
C115        C116   1.357       .  D
C116       C2790   1.495       .  S
C121        C122   1.546       .  S
C121        C127   1.536       .  S
C121        C125   1.530       .  S
C121       C2760   1.548       .  S
C122        H129   1.082       .  S
C122        C123   1.365       .  D
C123        C124   1.547       .  S
C123       C2783   1.499       .  S
C124        C128   1.553       .  S
C124        C126   1.559       .  S
C124        H130   1.106       .  S
C125        H131   1.086       .  S
C125        C126   1.371       .  D
C126       C2770   1.510       .  S
C127        H132   1.085       .  S
C127        C128   1.364       .  D
C128       C2750   1.504       .  S
C133        C134   1.542       .  S
C133        C139   1.537       .  S
C133        C137   1.526       .  S
C133       C2733   1.542       .  S
C134        H141   1.087       .  S
C134        C135   1.374       .  D
C135        C136   1.553       .  S
C135       C2740   1.499       .  S
C136        C140   1.540       .  S
C136        C138   1.554       .  S
C136        H142   1.106       .  S
C137        H143   1.087       .  S
C137        C138   1.369       .  D
C138       C2973   1.503       .  S
C139        H144   1.078       .  S
C139        C140   1.352       .  D
C140       C2720   1.494       .  S
C145        C146   1.529       .  S
C145        C151   1.554       .  S
C145        C149   1.545       .  S
C145       C2700   1.573       .  S
C146        H153   1.086       .  S
C146        C147   1.359       .  D
C147        C148   1.541       .  S
C147       C2690   1.502       .  S
C148        C152   1.557       .  S
C148        C150   1.536       .  S
C148        H154   1.098       .  S
C149        H155   1.083       .  S
C149        C150   1.365       .  D
C150       C2680   1.491       .  S
C151        H156   1.086       .  S
C151        C152   1.391       .  D
C152       C2710   1.532       .  S
C157        C158   1.546       .  S
C157        C163   1.533       .  S
C157        C161   1.522       .  S
C157       C2663   1.543       .  S
C158        H165   1.085       .  S
C158        C159   1.361       .  D
C159        C160   1.534       .  S
C159       C2650   1.491       .  S
C160        C164   1.562       .  S
C160        C162   1.565       .  S
C160        H166   1.094       .  S
C161        H167   1.081       .  S
C161        C162   1.365       .  D
C162       C2640   1.522       .  S
C163        H168   1.081       .  S
C163        C164   1.368       .  D
C164       C2670   1.507       .  S
C169        C170   1.547       .  S
C169        C175   1.521       .  S
C169        C173   1.540       .  S
C169       C2623   1.559       .  S
C170        H177   1.085       .  S
C170        C171   1.379       .  D
C171        C172   1.565       .  S
C171       C2603   1.531       .  S
C172        C176   1.552       .  S
C172        C174   1.550       .  S
C172        H178   1.106       .  S
C173        H179   1.078       .  S
C173        C174   1.370       .  D
C174       C2630   1.500       .  S
C175        H180   1.089       .  S
C175        C176   1.356       .  D
C176       C2610   1.496       .  S
C181        C182   1.536       .  S
C181        C187   1.548       .  S
C181        C185   1.526       .  S
C181       C2583   1.545       .  S
C182        H189   1.085       .  S
C182        C183   1.360       .  D
C183        C184   1.545       .  S
C183       C2570   1.488       .  S
C184        C188   1.551       .  S
C184        C186   1.551       .  S
C184        H190   1.107       .  S
C185        H191   1.086       .  S
C185        C186   1.367       .  D
C186       C2560   1.494       .  S
C187        H192   1.081       .  S
C187        C188   1.375       .  D
C188       C2590   1.517       .  S
C193        C194   1.543       .  S
C193        C199   1.529       .  S
C193        C197   1.542       .  S
C193       C2540   1.553       .  S
C194        H201   1.087       .  S
C194        C195   1.357       .  D
C195        C196   1.529       .  S
C195       C2530   1.482       .  S
C196        C200   1.558       .  S
C196        C198   1.569       .  S
C196        H202   1.094       .  S
C197        H203   1.073       .  S
C197        C198   1.381       .  D
C198       C2520   1.535       .  S
C199        H204   1.086       .  S
C199        C200   1.364       .  D
C200       C2550   1.517       .  S
C205        C206   1.532       .  S
C205        C211   1.542       .  S
C205        C209   1.523       .  S
C205       C2510   1.542       .  S
C206        H213   1.089       .  S
C206        C207   1.370       .  D
C207        C208   1.555       .  S
C207       C2480   1.500       .  S
C208        C212   1.541       .  S
C208        C210   1.546       .  S
C208        H214   1.106       .  S
C209        H215   1.085       .  S
C209        C210   1.359       .  D
C210       C2490   1.490       .  S
C211        H216   1.077       .  S
C211        C212   1.364       .  D
C212       C2500   1.492       .  S
C217        C218   1.546       .  S
C217        C223   1.533       .  S
C217        C221   1.542       .  S
C217       C2563   1.560       .  S
C218        H225   1.076       .  S
C218        C219   1.369       .  D
C219        C220   1.543       .  S
C219       C2653   1.497       .  S
C220        C224   1.549       .  S
C220        C222   1.549       .  S
C220        H226   1.108       .  S
C221        H227   1.087       .  S
C221        C222   1.368       .  D
C222       C2460   1.510       .  S
C223        H228   1.086       .  S
C223        C224   1.365       .  D
C224       C2470   1.496       .  S
C229        C230   1.528       .  S
C229        C235   1.536       .  S
C229        C233   1.544       .  S
C229       C2430   1.553       .  S
C230        H237   1.087       .  S
C230        C231   1.363       .  D
C231        C232   1.569       .  S
C231       C2600   1.505       .  S
C232        C236   1.538       .  S
C232        C234   1.562       .  S
C232        H238   1.098       .  S
C233        H239   1.084       .  S
C233        C234   1.382       .  D
C234       C2453   1.533       .  S
C235        H240   1.070       .  S
C235        C236   1.353       .  D
C236       C2440   1.499       .  S
C241        C242   1.523       .  S
C241        C247   1.535       .  S
C241        C245   1.550       .  S
C241       C2643   1.544       .  S
C242        H249   1.084       .  S
C242        C243   1.362       .  D
C243        C244   1.551       .  S
C243       C2493   1.504       .  S
C244        C248   1.552       .  S
C244        C246   1.539       .  S
C244        H250   1.103       .  S
C245        H251   1.083       .  S
C245        C246   1.365       .  D
C246       C2410   1.506       .  S
C247        H252   1.085       .  S
C247        C248   1.371       .  D
C248       C2420   1.491       .  S
C253        C254   1.548       .  S
C253        C259   1.539       .  S
C253        C257   1.529       .  S
C253       C2683   1.553       .  S
C254        H261   1.084       .  S
C254        C255   1.359       .  D
C255        C256   1.541       .  S
C255       C2380   1.498       .  S
C256        C260   1.556       .  S
C256        C258   1.554       .  S
C256        H262   1.105       .  S
C257        H263   1.083       .  S
C257        C258   1.366       .  D
C258       C2390   1.517       .  S
C259        H264   1.084       .  S
C259        C260   1.374       .  D
C260       C2400   1.497       .  S
C265        C266   1.527       .  S
C265        C271   1.524       .  S
C265        C269   1.556       .  S
C265       C2483   1.545       .  S
C266        H273   1.086       .  S
C266        C267   1.359       .  D
C267        C268   1.557       .  S
C267       C2573   1.517       .  S
C268        C272   1.570       .  S
C268        C270   1.540       .  S
C268        H274   1.104       .  S
C269        H275   1.081       .  S
C269        C270   1.375       .  D
C270       C2360   1.512       .  S
C271        H276   1.086       .  S
C271        C272   1.359       .  D
C272       C2370   1.493       .  S
O277       Cu285   2.032       .  S
O277        C287   1.280       .  A
O278       Cu285   2.031       .  S
O278        C288   1.281       .  A
O279       Cu285   2.026       .  S
O279        C289   1.278       .  A
O280       Cu285   2.027       .  S
O280        C290   1.279       .  A
O281       Cu286   2.048       .  S
O281        C290   1.283       .  A
O282       Cu286   2.036       .  S
O282        C289   1.283       .  A
O283       Cu286   2.001       .  S
O283        C288   1.275       .  A
O284       Cu286   2.005       .  S
O284        C287   1.276       .  A
Cu285      Cu286   2.369       .  S
C287       C2503   1.480       .  S
C288       C2350   1.483       .  S
C289       C2340   1.500       .  S
C290       C2330   1.502       .  S
O291       Cu299   2.018       .  S
O291        C301   1.278       .  A
O292       Cu299   2.009       .  S
O292        C302   1.276       .  A
O293       Cu299   2.016       .  S
O293        C303   1.278       .  A
O294       Cu299   2.023       .  S
O294        C304   1.279       .  A
O295       Cu300   1.998       .  S
O295        C304   1.275       .  A
O296       Cu300   2.010       .  S
O296        C303   1.276       .  A
O297       Cu300   2.029       .  S
O297        C302   1.280       .  A
O298       Cu300   2.034       .  S
O298        C301   1.282       .  A
Cu299      Cu300   2.367       .  S
C301       C2343   1.501       .  S
C302       C2620   1.504       .  S
C303       C2413   1.475       .  S
C304       C2320   1.472       .  S
O305       Cu313   2.020       .  S
O305        C315   1.279       .  A
O306       Cu313   2.019       .  S
O306        C316   1.278       .  A
O307       Cu313   2.011       .  S
O307        C317   1.279       .  A
O308       Cu313   2.012       .  S
O308        C318   1.279       .  A
O309       Cu314   1.988       .  S
O309        C318   1.273       .  A
O310       Cu314   1.999       .  S
O310        C317   1.276       .  A
O311       Cu314   2.039       .  S
O311        C316   1.281       .  A
O312       Cu314   2.005       .  S
O312        C315   1.277       .  A
Cu313      Cu314   2.366       .  S
C315       C3123   1.489       .  S
C316       C2313   1.487       .  S
C317       C2300   1.482       .  S
C318       C2870   1.492       .  S
O319       Cu327   2.039       .  S
O319        C329   1.281       .  A
O320       Cu327   2.023       .  S
O320        C330   1.279       .  A
O321       Cu327   1.999       .  S
O321        C331   1.274       .  A
O322       Cu327   1.991       .  S
O322        C332   1.275       .  A
O323       Cu328   2.023       .  S
O323        C332   1.280       .  A
O324       Cu328   2.051       .  S
O324        C331   1.283       .  A
O325       Cu328   2.039       .  S
O325        C330   1.281       .  A
O326       Cu328   2.028       .  S
O326        C329   1.279       .  A
Cu327      Cu328   2.360       .  S
C329       C2290   1.495       .  S
C330       C2853   1.508       .  S
C331       C3063   1.515       .  S
C332       C2303   1.483       .  S
O333       Cu341   1.998       .  S
O333        C343   1.274       .  A
O334       Cu341   2.017       .  S
O334        C344   1.277       .  A
O335       Cu341   2.008       .  S
O335        C345   1.277       .  A
O336       Cu341   1.995       .  S
O336        C346   1.273       .  A
O337       Cu342   2.012       .  S
O337        C346   1.278       .  A
O338       Cu342   2.005       .  S
O338        C345   1.277       .  A
O339       Cu342   2.030       .  S
O339        C344   1.281       .  A
O340       Cu342   2.045       .  S
O340        C343   1.281       .  A
Cu341      Cu342   2.360       .  S
C343       C3040   1.514       .  S
C344       C2280   1.488       .  S
C345       C2270   1.475       .  S
C346       C2800   1.501       .  S
O347       Cu355   2.009       .  S
O347        C357   1.277       .  A
O348       Cu355   2.002       .  S
O348        C358   1.277       .  A
O349       Cu355   2.009       .  S
O349        C359   1.277       .  A
O350       Cu355   2.004       .  S
O350        C360   1.276       .  A
O351       Cu356   2.012       .  S
O351        C360   1.278       .  A
O352       Cu356   2.021       .  S
O352        C359   1.278       .  A
O353       Cu356   2.019       .  S
O353        C358   1.278       .  A
O354       Cu356   2.001       .  S
O354        C357   1.277       .  A
Cu355      Cu356   2.367       .  S
C357       C2260   1.480       .  S
C358       C2923   1.485       .  S
C359       C3143   1.504       .  S
C360       C2273   1.474       .  S
O361       Cu369   1.981       .  S
O361        C371   1.273       .  A
O362       Cu369   1.988       .  S
O362        C372   1.275       .  A
O363       Cu369   2.010       .  S
O363        C373   1.278       .  A
O364       Cu369   2.017       .  S
O364        C374   1.279       .  A
O365       Cu370   2.003       .  S
O365        C374   1.277       .  A
O366       Cu370   1.996       .  S
O366        C373   1.274       .  A
O367       Cu370   1.997       .  S
O367        C372   1.276       .  A
O368       Cu370   2.009       .  S
O368        C371   1.279       .  A
Cu369      Cu370   2.369       .  S
C371       C2253   1.468       .  S
C372       C2580   1.463       .  S
C373       C2393   1.497       .  S
C374       C2240   1.479       .  S
O375       Cu383   2.016       .  S
O375        C385   1.278       .  A
O376       Cu383   2.014       .  S
O376        C386   1.277       .  A
O377       Cu383   2.008       .  S
O377        C387   1.277       .  A
O378       Cu383   2.018       .  S
O378        C388   1.279       .  A
O379       Cu384   2.027       .  S
O379        C388   1.280       .  A
O380       Cu384   2.010       .  S
O380        C387   1.278       .  A
O381       Cu384   2.011       .  S
O381        C386   1.279       .  A
O382       Cu384   1.999       .  S
O382        C385   1.276       .  A
Cu383      Cu384   2.370       .  S
C385       C2243   1.476       .  S
C386       C2543   1.481       .  S
C387       C2363   1.492       .  S
C388       C2230   1.489       .  S
O389       Cu397   2.002       .  S
O389        C399   1.276       .  A
O390       Cu397   2.004       .  S
O390        C400   1.277       .  A
O391       Cu397   2.019       .  S
O391        C401   1.279       .  A
O392       Cu397   2.023       .  S
O392        C402   1.279       .  A
O393       Cu398   2.006       .  S
O393        C402   1.277       .  A
O394       Cu398   2.024       .  S
O394        C401   1.279       .  A
O395       Cu398   2.024       .  S
O395        C400   1.279       .  A
O396       Cu398   2.008       .  S
O396        C399   1.278       .  A
Cu397      Cu398   2.366       .  S
C399       C2223   1.486       .  S
C400       C2743   1.490       .  S
C401       C2943   1.487       .  S
C402       C2210   1.493       .  S
O403       Cu411   2.017       .  S
O403        C413   1.279       .  A
O404       Cu411   2.025       .  S
O404        C414   1.280       .  A
O405       Cu411   2.005       .  S
O405        C415   1.277       .  A
O406       Cu411   2.008       .  S
O406        C416   1.277       .  A
O407       Cu412   2.009       .  S
O407        C416   1.278       .  A
O408       Cu412   2.000       .  S
O408        C415   1.278       .  A
O409       Cu412   2.015       .  S
O409        C414   1.278       .  A
O410       Cu412   2.003       .  S
O410        C413   1.276       .  A
Cu411      Cu412   2.371       .  S
C413       C3003   1.476       .  S
C414       C2200   1.487       .  S
C415       C2213   1.485       .  S
C416       C2763   1.482       .  S
O417       Cu425   2.040       .  S
O417        C427   1.281       .  A
O418       Cu425   2.030       .  S
O418        C428   1.281       .  A
O419       Cu425   2.011       .  S
O419        C429   1.276       .  A
O420       Cu425   2.009       .  S
O420        C430   1.277       .  A
O421       Cu426   2.016       .  S
O421        C430   1.279       .  A
O422       Cu426   2.022       .  S
O422        C429   1.279       .  A
O423       Cu426   2.028       .  S
O423        C428   1.278       .  A
O424       Cu426   2.014       .  S
O424        C427   1.277       .  A
Cu425      Cu426   2.357       .  S
C427       C2180   1.511       .  S
C428       C2703   1.521       .  S
C429       C2463   1.478       .  S
C430       C2190   1.490       .  S
O431       Cu439   2.009       .  S
O431        C441   1.278       .  A
O432       Cu439   1.993       .  S
O432        C442   1.276       .  A
O433       Cu439   2.018       .  S
O433        C443   1.278       .  A
O434       Cu439   2.020       .  S
O434        C444   1.278       .  A
O435       Cu440   2.008       .  S
O435        C444   1.277       .  A
O436       Cu440   2.007       .  S
O436        C443   1.277       .  A
O437       Cu440   1.999       .  S
O437        C442   1.275       .  A
O438       Cu440   2.010       .  S
O438        C441   1.277       .  A
Cu439      Cu440   2.360       .  S
C441       C2170   1.480       .  S
C442       C2660   1.465       .  S
C443       C2443   1.499       .  S
C444       C2183   1.505       .  S
C445        C446   1.524       .  S
C445        C451   1.533       .  S
C445        C449   1.539       .  S
C445       C2150   1.539       .  S
C446        H453   1.086       .  S
C446        C447   1.371       .  D
C447        C448   1.555       .  S
C447       C2860   1.511       .  S
C448        C452   1.547       .  S
C448        C450   1.553       .  S
C448        H454   1.104       .  S
C449        H455   1.085       .  S
C449        C450   1.369       .  D
C450       C2160   1.494       .  S
C451        H456   1.084       .  S
C451        C452   1.358       .  D
C452       C2143   1.493       .  S
C457        C458   1.521       .  S
C457        C463   1.543       .  S
C457        C461   1.529       .  S
C457       C2130   1.539       .  S
C458        H465   1.079       .  S
C458        C459   1.372       .  D
C459        C460   1.563       .  S
C459       C2123   1.525       .  S
C460        C464   1.533       .  S
C460        C462   1.558       .  S
C460        H466   1.098       .  S
C461        H467   1.079       .  S
C461        C462   1.363       .  D
C462       C2983   1.498       .  S
C463        H468   1.087       .  S
C463        C464   1.361       .  D
C464       C2533   1.483       .  S
O469       Cu477   1.997   1_545  S
O469        C479   1.278       .  A
O470       Cu477   2.002       .  S
O470        C480   1.276       .  A
O471       Cu477   2.024   1_545  S
O471        C481   1.279       .  A
O472       Cu477   2.009       .  S
O472        C482   1.276       .  A
O473       Cu478   2.031       .  S
O473        C482   1.281       .  A
O474       Cu478   2.018   1_545  S
O474        C481   1.279       .  A
O475       Cu478   1.996       .  S
O475        C480   1.273       .  A
O476       Cu478   2.008   1_545  S
O476        C479   1.277       .  A
Cu477      Cu478   2.364       .  S
C479       C2843   1.480       .  S
C480       C2110   1.502       .  S
C481       C2100   1.493       .  S
C482       C2593   1.484       .  S
O483       Cu491   2.010       .  S
O483        C493   1.278       .  A
O484       Cu491   1.999       .  S
O484        C494   1.277       .  A
O485       Cu491   2.013       .  S
O485        C495   1.276       .  A
O486       Cu491   1.992       .  S
O486        C496   1.275       .  A
O487       Cu492   2.049       .  S
O487        C496   1.282       .  A
O488       Cu492   2.024       .  S
O488        C495   1.280       .  A
O489       Cu492   1.993       .  S
O489        C494   1.275       .  A
O490       Cu492   1.993       .  S
O490        C493   1.274       .  A
Cu491      Cu492   2.364       .  S
C493       C2113   1.497   1_554  S
C494       C2993   1.478       .  S
C495       C2473   1.496   1_554  S
C496       C2090   1.486       .  S
C497        C498   1.526       .  S
C497        C503   1.536       .  S
C497        C501   1.540       .  S
C497       C2080   1.546       .  S
C498        H505   1.086       .  S
C498        C499   1.370       .  D
C499        C500   1.558       .  S
C499       C2833   1.507       .  S
C500        C504   1.542       .  S
C500        C502   1.542       .  S
C500        H506   1.103       .  S
C501        H507   1.085       .  S
C501        C502   1.368       .  D
C502       C2070   1.485       .  S
C503        H508   1.083       .  S
C503        C504   1.366       .  D
C504       C2433   1.504       .  S
O509       Cu517   2.014       .  S
O509        C519   1.279       .  A
O510       Cu517   2.015       .  S
O510        C520   1.278   1_554  A
O511       Cu517   2.015       .  S
O511        C521   1.278       .  A
O512       Cu517   2.011       .  S
O512        C522   1.278   1_554  A
O513       Cu518   2.022       .  S
O513        C522   1.279   1_554  A
O514       Cu518   2.017       .  S
O514        C521   1.278       .  A
O515       Cu518   1.989       .  S
O515        C520   1.276   1_554  A
O516       Cu518   2.001       .  S
O516        C519   1.276       .  A
Cu517      Cu518   2.373       .  S
C519       C2053   1.480       .  S
C520       C2073   1.478       .  S
C521       C2060   1.478       .  S
C522       C2103   1.487       .  S
O523       Cu531   2.012       .  S
O523        C533   1.278       .  A
O524       Cu531   1.988   1_545  S
O524        C534   1.275       .  A
O525       Cu531   2.011       .  S
O525        C535   1.276       .  A
O526       Cu531   2.006   1_545  S
O526        C536   1.278       .  A
O527       Cu532   2.016   1_545  S
O527        C536   1.278       .  A
O528       Cu532   2.020       .  S
O528        C535   1.279       .  A
O529       Cu532   2.010   1_545  S
O529        C534   1.278       .  A
O530       Cu532   2.013       .  S
O530        C533   1.278       .  A
Cu531      Cu532   2.368       .  S
C533       C2093   1.480       .  S
C534       C2153   1.469       .  S
C535       C2120   1.502       .  S
C536       C2050   1.486       .  S
C537        C538   1.538       .  S
C537        C543   1.531       .  S
C537        C541   1.546       .  S
C537       C2043   1.551       .  S
C538        H545   1.086       .  S
C538        C539   1.373       .  D
C539        C540   1.551       .  S
C539       C2063   1.515       .  S
C540        C544   1.550       .  S
C540        C542   1.552       .  S
C540        H546   1.106       .  S
C541        H547   1.079       .  S
C541        C542   1.369       .  D
C542       C2140   1.503       .  S
C543        H548   1.086       .  S
C543        C544   1.361       .  D
C544       C2933   1.494       .  S
O549       Cu557   2.031       .  S
O549        C559   1.281   1_554  A
O550       Cu557   2.020       .  S
O550        C560   1.279       .  A
O551       Cu557   2.018       .  S
O551        C561   1.278       .  A
O552       Cu557   2.002       .  S
O552        C562   1.276       .  A
O553       Cu558   1.992       .  S
O553        C562   1.276       .  A
O554       Cu558   2.010       .  S
O554        C561   1.278       .  A
O555       Cu558   2.017       .  S
O555        C560   1.279       .  A
O556       Cu558   2.028       .  S
O556        C559   1.279   1_554  A
Cu557      Cu558   2.373       .  S
C559       C2030   1.495       .  S
C560       C2780   1.488       .  S
C561       C2713   1.483   1_554  S
C562       C2020   1.466       .  S
O563       Cu571   2.017       .  S
O563        C573   1.277       .  A
O564       Cu571   2.014   1_545  S
O564        C574   1.279       .  A
O565       Cu571   2.025       .  S
O565        C575   1.279       .  A
O566       Cu571   2.017   1_545  S
O566        C576   1.277       .  A
O567       Cu572   2.036   1_545  S
O567        C576   1.281       .  A
O568       Cu572   2.037       .  S
O568        C575   1.281       .  A
O569       Cu572   2.021   1_545  S
O569        C574   1.278       .  A
O570       Cu572   2.019       .  S
O570        C573   1.278       .  A
Cu571      Cu572   2.364       .  S
C573       C2403   1.507       .  S
C574       C2010   1.484       .  S
C575       C2033   1.497       .  S
C576       C3083   1.489       .  S
C577        C578   1.551       .  S
C577        C583   1.533       .  S
C577        C581   1.527       .  S
C577       C1983   1.558       .  S
C578        H585   1.076       .  S
C578        C579   1.376       .  D
C579        C580   1.552       .  S
C579       C2773   1.515       .  S
C580        C584   1.554       .  S
C580        C582   1.554       .  S
C580        H586   1.105       .  S
C581        H587   1.113       .  S
C581        C582   1.361       .  D
C582       C2003   1.503       .  S
C583        H588   1.093       .  S
C583        C584   1.362       .  D
C584       C1993   1.505       .  S
O589       Cu597   1.999       .  S
O589        C599   1.277       .  A
O590       Cu597   1.993   1_565  S
O590        C600   1.275       .  A
O591       Cu597   2.015       .  S
O591        C601   1.278       .  A
O592       Cu597   2.017   1_565  S
O592        C602   1.279       .  A
O593       Cu598   2.030   1_565  S
O593        C602   1.280       .  A
O594       Cu598   2.024       .  S
O594        C601   1.280       .  A
O595       Cu598   1.991   1_565  S
O595        C600   1.275       .  A
O596       Cu598   2.006       .  S
O596        C599   1.276       .  A
Cu597      Cu598   2.372       .  S
C599       C1970   1.469       .  S
C600       C2023   1.461       .  S
C601       C1960   1.494       .  S
C602       C2000   1.499       .  S
O603       Cu611   2.014       .  S
O603        C613   1.278       .  A
O604       Cu611   2.015   1_556  S
O604        C614   1.278       .  A
O605       Cu611   2.004       .  S
O605        C615   1.277       .  A
O606       Cu611   2.018   1_556  S
O606        C616   1.279       .  A
O607       Cu612   2.017   1_556  S
O607        C616   1.278       .  A
O608       Cu612   2.016       .  S
O608        C615   1.278       .  A
O609       Cu612   2.028   1_556  S
O609        C614   1.280       .  A
O610       Cu612   2.026       .  S
O610        C613   1.280       .  A
Cu611      Cu612   2.370       .  S
C613       C1963   1.490       .  S
C614       C1950   1.497       .  S
C615       C1940   1.478       .  S
C616       C2013   1.483       .  S
C617        C618   1.525       .  S
C617        C623   1.534       .  S
C617        C621   1.553       .  S
C617       C3070   1.551       .  S
C618        H625   1.087       .  S
C618        C619   1.358       .  D
C619        C620   1.550       .  S
C619       C1920   1.489       .  S
C620        C624   1.558       .  S
C620        C622   1.553       .  S
C620        H626   1.106       .  S
C621        H627   1.084       .  S
C621        C622   1.382       .  D
C622       C1930   1.528       .  S
C623        H628   1.083       .  S
C623        C624   1.365       .  D
C624       C1953   1.509       .  S
C629        C630   1.547       .  S
C629        C635   1.536       .  S
C629        C633   1.515       .  S
C629       C1910   1.539       .  S
C630        H637   1.075       .  S
C630        C631   1.372       .  D
C631        C632   1.559       .  S
C631       C1900   1.528       .  S
C632        C636   1.549       .  S
C632        C634   1.575       .  S
C632        H638   1.103       .  S
C633        H639   1.087       .  S
C633        C634   1.357       .  D
C634       C1890   1.500       .  S
C635        H640   1.085       .  S
C635        C636   1.365       .  D
C636       C3133   1.505       .  S
C641        C642   1.538       .  S
C641        C647   1.545       .  S
C641        C645   1.544       .  S
C641       C1870   1.569       .  S
C642        H649   1.084       .  S
C642        C643   1.367       .  D
C643        C644   1.565       .  S
C643       C1860   1.501       .  S
C644        C648   1.535       .  S
C644        C646   1.554       .  S
C644        H650   1.103       .  S
C645        H651   1.083       .  S
C645        C646   1.377       .  D
C646       C1883   1.529       .  S
C647        H652   1.085       .  S
C647        C648   1.366       .  D
C648       C2723   1.502       .  S
O653       Cu661   2.011   1_455  S
O653        C663   1.277       .  A
O654       Cu661   2.023       .  S
O654        C664   1.279       .  A
O655       Cu661   2.005   1_455  S
O655        C665   1.278       .  A
O656       Cu661   2.019       .  S
O656        C666   1.278       .  A
O657       Cu662   2.008       .  S
O657        C666   1.277       .  A
O658       Cu662   2.006   1_455  S
O658        C665   1.276       .  A
O659       Cu662   2.020       .  S
O659        C664   1.279       .  A
O660       Cu662   2.030   1_455  S
O660        C663   1.281       .  A
Cu661      Cu662   2.365       .  S
C663       C3033   1.498       .  S
C664       C1850   1.490       .  S
C665       C1840   1.472       .  S
C666       C2423   1.501       .  S
O667       Cu675   2.011       .  S
O667        C677   1.277   1_554  A
O668       Cu675   2.001       .  S
O668        C678   1.275       .  A
O669       Cu675   2.011       .  S
O669        C679   1.278   1_554  A
O670       Cu675   2.002       .  S
O670        C680   1.278       .  A
O671       Cu676   2.009       .  S
O671        C680   1.276       .  A
O672       Cu676   2.012       .  S
O672        C679   1.278   1_554  A
O673       Cu676   2.018       .  S
O673        C678   1.279       .  A
O674       Cu676   2.023   1_556  S
O674        C677   1.280       .  A
Cu675      Cu676   2.375       .  S
C677       C1853   1.486       .  S
C678       C2730   1.470       .  S
C679       C2673   1.480       .  S
C680       C1833   1.476       .  S
C681        C682   1.523       .  S
C681        C687   1.531       .  S
C681        C685   1.547       .  S
C681       C3023   1.547       .  S
C682        H689   1.087       .  S
C682        C683   1.356       .  D
C683        C684   1.564       .  S
C683       C2693   1.496       .  S
C684        C688   1.565       .  S
C684        C686   1.551       .  S
C684        H690   1.104       .  S
C685        H691   1.083       .  S
C685        C686   1.370       .  D
C686       C1820   1.507       .  S
C687        H692   1.085       .  S
C687        C688   1.369       .  D
C688       C1810   1.519       .  S
O693       Cu701   1.996       .  S
O693        C703   1.277   1_554  A
O694       Cu701   1.991       .  S
O694        C704   1.275       .  A
O695       Cu701   2.008   1_556  S
O695        C705   1.277       .  A
O696       Cu701   1.994       .  S
O696        C706   1.276       .  A
O697       Cu702   1.986       .  S
O697        C706   1.275       .  A
O698       Cu702   2.004   1_556  S
O698        C705   1.277       .  A
O699       Cu702   2.022       .  S
O699        C704   1.280       .  A
O700       Cu702   2.029   1_556  S
O700        C703   1.280       .  A
Cu701      Cu702   2.375       .  S
C703       C1813   1.483       .  S
C704       C1790   1.481       .  S
C705       C1843   1.473       .  S
C706       C1800   1.462       .  S
O707       Cu715   2.048   1_655  S
O707        C717   1.282       .  A
O708       Cu715   2.028       .  S
O708        C718   1.280       .  A
O709       Cu715   2.004   1_655  S
O709        C719   1.277       .  A
O710       Cu715   2.018       .  S
O710        C720   1.278       .  A
O711       Cu716   2.002       .  S
O711        C720   1.277       .  A
O712       Cu716   1.991   1_655  S
O712        C719   1.276       .  A
O713       Cu716   1.995       .  S
O713        C718   1.276       .  A
O714       Cu716   2.002   1_655  S
O714        C717   1.277       .  A
Cu715      Cu716   2.373       .  S
C717       C1873   1.492       .  S
C718       C1793   1.479       .  S
C719       C1830   1.476       .  S
C720       C1903   1.480       .  S
C721        C722   1.512       .  S
C721        C727   1.535       .  S
C721        C725   1.546       .  S
C721       C1803   1.533       .  S
C722        H729   1.087       .  S
C722        C723   1.356       .  D
C723        C724   1.571       .  S
C723       C2753   1.487       .  S
C724        C728   1.553       .  S
C724        C726   1.557       .  S
C724        H730   1.100       .  S
C725        H731   1.075       .  S
C725        C726   1.371       .  D
C726       C1780   1.527       .  S
C727        H732   1.085       .  S
C727        C728   1.364       .  D
C728       C1893   1.513       .  S
O733       Cu741   1.999       .  S
O733        C743   1.275   1_554  A
O734       Cu741   2.016       .  S
O734        C744   1.278       .  A
O735       Cu741   2.038   1_556  S
O735        C745   1.283       .  A
O736       Cu741   2.035       .  S
O736        C746   1.281       .  A
O737       Cu742   1.996       .  S
O737        C746   1.276       .  A
O738       Cu742   2.005   1_556  S
O738        C745   1.276       .  A
O739       Cu742   2.026       .  S
O739        C744   1.280       .  A
O740       Cu742   2.003   1_556  S
O740        C743   1.278       .  A
Cu741      Cu742   2.373       .  S
C743       C1773   1.469       .  S
C744       C2963   1.487       .  S
C745       C2450   1.490       .  S
C746       C1760   1.487       .  S
O747       Cu755   2.006   1_455  S
O747        C757   1.278       .  A
O748       Cu755   2.003       .  S
O748        C758   1.278       .  A
O749       Cu755   1.989   1_455  S
O749        C759   1.275       .  A
O750       Cu755   1.999       .  S
O750        C760   1.276       .  A
O751       Cu756   2.023       .  S
O751        C760   1.280       .  A
O752       Cu756   2.010   1_455  S
O752        C759   1.278       .  A
O753       Cu756   1.994       .  S
O753        C758   1.275       .  A
O754       Cu756   2.011   1_455  S
O754        C757   1.277       .  A
Cu755      Cu756   2.371       .  S
C757       C2823   1.476       .  S
C758       C1770   1.469       .  S
C759       C1750   1.474       .  S
C760       C2633   1.496       .  S
O761       Cu769   2.012   1_655  S
O761        C771   1.278       .  A
O762       Cu769   2.033       .  S
O762        C772   1.279       .  A
O763       Cu769   2.036   1_655  S
O763        C773   1.281       .  A
O764       Cu769   2.030       .  S
O764        C774   1.281       .  A
O765       Cu770   1.997       .  S
O765        C774   1.276       .  A
O766       Cu770   2.002   1_655  S
O766        C773   1.275       .  A
O767       Cu770   2.033       .  S
O767        C772   1.281       .  A
O768       Cu770   2.036   1_655  S
O768        C771   1.281       .  A
Cu769      Cu770   2.365       .  S
C771       C1763   1.494       .  S
C772       C1730   1.501       .  S
C773       C1740   1.500       .  S
C774       C1723   1.483       .  S
C775        C776   1.521       .  S
C775        C781   1.541       .  S
C775        C779   1.538       .  S
C775       C1743   1.551       .  S
C776        H783   1.086       .  S
C776        C777   1.361       .  D
C777        C778   1.554       .  S
C777       C1710   1.494       .  S
C778        C782   1.551       .  S
C778        C780   1.548       .  S
C778        H784   1.108       .  S
C779        H785   1.077       .  S
C779        C780   1.369       .  D
C780       C1700   1.501       .  S
C781        H786   1.085       .  S
C781        C782   1.374       .  D
C782       C2953   1.506       .  S
O787       Cu795   2.003       .  S
O787        C797   1.275       .  A
O788       Cu795   1.986   1_556  S
O788        C798   1.274       .  A
O789       Cu795   1.996       .  S
O789        C799   1.277       .  A
O790       Cu795   2.008   1_556  S
O790        C800   1.278       .  A
O791       Cu796   1.982   1_556  S
O791        C800   1.274       .  A
O792       Cu796   1.984       .  S
O792        C799   1.274       .  A
O793       Cu796   2.029   1_556  S
O793        C798   1.281       .  A
O794       Cu796   2.034       .  S
O794        C797   1.282       .  A
Cu795      Cu796   2.373       .  S
C797       C1720   1.488       .  S
C798       C1690   1.482       .  S
C799       C1680   1.461       .  S
C800       C1753   1.470       .  S
C801        C802   1.532       .  S
C801        C807   1.544       .  S
C801        C805   1.546       .  S
C801       C2813   1.560       .  S
C802        H809   1.087       .  S
C802        C803   1.357       .  D
C803        C804   1.542       .  S
C803       C1693   1.495       .  S
C804        C808   1.545       .  S
C804        C806   1.553       .  S
C804        H810   1.102       .  S
C805        H811   1.084       .  S
C805        C806   1.385       .  D
C806       C1670   1.524       .  S
C807        H812   1.075       .  S
C807        C808   1.363       .  D
C808       C1923   1.492       .  S
C813        C814   1.530       .  S
C813        C819   1.548       .  S
C813        C817   1.536       .  S
C813       C1660   1.557       .  S
C814        H821   1.087       .  S
C814        C815   1.352       .  D
C815        C816   1.546       .  S
C815       C2793   1.487       .  S
C816        C820   1.555       .  S
C816        C818   1.558       .  S
C816        H822   1.103       .  S
C817        H823   1.085       .  S
C817        C818   1.375       .  D
C818       C1640   1.530       .  S
C819        H824   1.083       .  S
C819        C820   1.378       .  D
C820       C1650   1.505       .  S
C825        C826   1.539       .  S
C825        C831   1.523       .  S
C825        C829   1.551       .  S
C825       C1633   1.559       .  S
C826        H833   1.081       .  S
C826        C827   1.366       .  D
C827        C828   1.552       .  S
C827       C1620   1.506       .  S
C828        C832   1.555       .  S
C828        C830   1.556       .  S
C828        H834   1.109       .  S
C829        H835   1.086       .  S
C829        C830   1.378       .  D
C830       C3103   1.517       .  S
C831        H836   1.086       .  S
C831        C832   1.363       .  D
C832       C2613   1.498       .  S
O837       Cu845   2.003   1_455  S
O837        C847   1.277       .  A
O838       Cu845   2.003       .  S
O838        C848   1.275       .  A
O839       Cu845   2.008   1_455  S
O839        C849   1.279       .  A
O840       Cu845   2.011       .  S
O840        C850   1.276       .  A
O841       Cu846   1.964       .  S
O841        C850   1.269       .  A
O842       Cu846   1.970   1_455  S
O842        C849   1.272       .  A
O843       Cu846   2.017       .  S
O843        C848   1.280       .  A
O844       Cu846   2.011   1_455  S
O844        C847   1.278       .  A
Cu845      Cu846   2.366       .  S
C847       C2910   1.481       .  S
C848       C1610   1.483       .  S
C849       C1600   1.465       .  S
C850       C2513   1.496       .  S
O851       Cu859   2.028   1_545  S
O851        C861   1.280       .  A
O852       Cu859   2.036       .  S
O852        C862   1.281       .  A
O853       Cu859   2.008   1_545  S
O853        C863   1.277       .  A
O854       Cu859   2.016       .  S
O854        C864   1.278       .  A
O855       Cu860   1.998       .  S
O855        C864   1.277       .  A
O856       Cu860   2.010   1_545  S
O856        C863   1.278       .  A
O857       Cu860   2.001       .  S
O857        C862   1.275       .  A
O858       Cu860   2.007   1_545  S
O858        C861   1.277       .  A
Cu859      Cu860   2.363       .  S
C861       C1590   1.483       .  S
C862       C2373   1.506       .  S
C863       C3113   1.490       .  S
C864       C1613   1.479       .  S
C865        C866   1.550       .  S
C865        C871   1.540       .  S
C865        C869   1.534       .  S
C865       C2383   1.555       .  S
C866        H873   1.084       .  S
C866        C867   1.378       .  D
C867        C868   1.543       .  S
C867       C1570   1.497       .  S
C868        C872   1.535       .  S
C868        C870   1.550       .  S
C868        H874   1.105       .  S
C869        H875   1.085       .  S
C869        C870   1.373       .  D
C870       C2903   1.513       .  S
C871        H876   1.084       .  S
C871        C872   1.353       .  D
C872       C1580   1.493       .  S
O877       Cu885   1.996       .  S
O877        C887   1.276       .  A
O878       Cu885   2.004   1_545  S
O878        C888   1.277       .  A
O879       Cu885   2.011       .  S
O879        C889   1.278       .  A
O880       Cu885   2.013   1_545  S
O880        C890   1.279       .  A
O881       Cu886   1.973       .  S
O881        C890   1.272   1_565  A
O882       Cu886   1.961       .  S
O882        C889   1.272       .  A
O883       Cu886   2.030   1_545  S
O883        C888   1.281       .  A
O884       Cu886   2.020       .  S
O884        C887   1.280       .  A
Cu885      Cu886   2.374       .  S
C887       C1573   1.483       .  S
C888       C1550   1.489       .  S
C889       C1603   1.462       .  S
C890       C1560   1.464       .  S
O891       Cu899   2.012       .  S
O891        C901   1.277       .  A
O892       Cu899   2.017   1_455  S
O892        C902   1.277       .  A
O893       Cu899   2.029       .  S
O893        C903   1.280       .  A
O894       Cu899   2.026   1_455  S
O894        C904   1.280       .  A
O895       Cu900   2.016   1_455  S
O895        C904   1.278       .  A
O896       Cu900   1.996       .  S
O896        C903   1.273       .  A
O897       Cu900   2.019   1_455  S
O897        C902   1.279       .  A
O898       Cu900   2.041       .  S
O898        C901   1.281       .  A
Cu899      Cu900   2.362       .  S
C901       C1593   1.489       .  S
C902       C1653   1.499       .  S
C903       C1623   1.504       .  S
C904       C1553   1.489       .  S
C905        C906   1.524       .  S
C905        C911   1.537       .  S
C905        C909   1.533       .  S
C905       C1563   1.537       .  S
C906        H913   1.084       .  S
C906        C907   1.372       .  D
C907        C908   1.560       .  S
C907       C1540   1.510       .  S
C908        C912   1.560       .  S
C908        C910   1.548       .  S
C908        H914   1.104       .  S
C909        H915   1.083       .  S
C909        C910   1.358       .  D
C910       C3053   1.488       .  S
C911        H916   1.085       .  S
C911        C912   1.366       .  D
C912       C1643   1.516       .  S
O917       Cu925   2.000   1_565  S
O917        C927   1.276       .  A
O918       Cu925   1.996       .  S
O918        C928   1.277       .  A
O919       Cu925   2.005   1_565  S
O919        C929   1.277       .  A
O920       Cu925   1.998       .  S
O920        C930   1.277       .  A
O921       Cu926   2.010   1_545  S
O921        C930   1.277       .  A
O922       Cu926   2.022       .  S
O922        C929   1.278       .  A
O923       Cu926   2.029   1_545  S
O923        C928   1.280       .  A
O924       Cu926   2.019       .  S
O924        C927   1.280       .  A
Cu925      Cu926   2.373   1_545  S
C927       C1530   1.483       .  S
C928       C2893   1.487       .  S
C929       C2553   1.478       .  S
C930       C1520   1.473       .  S
O931       Cu939   2.014       .  S
O931        C941   1.277       .  A
O932       Cu939   2.010   1_455  S
O932        C942   1.278       .  A
O933       Cu939   2.003       .  S
O933        C943   1.277       .  A
O934       Cu939   2.021   1_455  S
O934        C944   1.279       .  A
O935       Cu940   2.007   1_455  S
O935        C944   1.276       .  A
O936       Cu940   2.020       .  S
O936        C943   1.279       .  A
O937       Cu940   2.007   1_455  S
O937        C942   1.277       .  A
O938       Cu940   2.023       .  S
O938        C941   1.278       .  A
Cu939      Cu940   2.360       .  S
C941       C1500   1.510       .  S
C942       C1510   1.472       .  S
C943       C1533   1.482       .  S
C944       C3163   1.501       .  S
O945       Cu953   2.003   1_455  S
O945        C955   1.277       .  A
O946       Cu953   2.001       .  S
O946        C956   1.277       .  A
O947       Cu953   1.997   1_455  S
O947        C957   1.276       .  A
O948       Cu953   1.988       .  S
O948        C958   1.275       .  A
O949       Cu954   2.027       .  S
O949        C958   1.280       .  A
O950       Cu954   2.032   1_455  S
O950        C957   1.281       .  A
O951       Cu954   2.011       .  S
O951        C956   1.277       .  A
O952       Cu954   2.011   1_455  S
O952        C955   1.278       .  A
Cu953      Cu954   2.372       .  S
C955       C1480   1.477       .  S
C956       C1523   1.474       .  S
C957       C1473   1.490       .  S
C958       C1490   1.480       .  S
C959        C960   1.546       .  S
C959        C965   1.536       .  S
C959        C963   1.519       .  S
C959       C1460   1.542       .  S
C960        H967   1.081       .  S
C960        C961   1.370       .  D
C961        C962   1.537       .  S
C961       C2883   1.505       .  S
C962        C966   1.550       .  S
C962        C964   1.557       .  S
C962        H968   1.089       .  S
C963        H969   1.087       .  S
C963        C964   1.359       .  D
C964       C1493   1.485       .  S
C965        H970   1.083       .  S
C965        C966   1.372       .  D
C966       C1703   1.515       .  S
O971       Cu979   2.017   1_565  S
O971        C981   1.279       .  A
O972       Cu979   2.011       .  S
O972        C982   1.278       .  A
O973       Cu979   2.004   1_565  S
O973        C983   1.277       .  A
O974       Cu979   2.012       .  S
O974        C984   1.278       .  A
O975       Cu980   2.015   1_545  S
O975        C984   1.277       .  A
O976       Cu980   2.002       .  S
O976        C983   1.277       .  A
O977       Cu980   2.022   1_545  S
O977        C982   1.279       .  A
O978       Cu980   2.030       .  S
O978        C981   1.280       .  A
Cu979      Cu980   2.371   1_545  S
C981       C1450   1.499       .  S
C982       C1470   1.492       .  S
C983       C1513   1.470       .  S
C984       C1440   1.476       .  S
C985        C986   1.552       .  S
C985        C991   1.534       .  S
C985        C989   1.527       .  S
C985       C1430   1.553       .  S
C986        H993   1.082       .  S
C986        C987   1.377       .  D
C987        C988   1.551       .  S
C987       C1453   1.508       .  S
C988        C992   1.546       .  S
C988        C990   1.557       .  S
C988        H994   1.107       .  S
C989        H995   1.086       .  S
C989        C990   1.368       .  D
C990       C3153   1.510       .  S
C991        H996   1.086       .  S
C991        C992   1.358       .  D
C992       C1990   1.495       .  S
C997        C998   1.543       .  S
C997       C1003   1.539       .  S
C997       C1001   1.534       .  S
C997       C1483   1.556       .  S
C998       H1005   1.081       .  S
C998        C999   1.367       .  D
C999       C1000   1.547       .  S
C999       C1420   1.491       .  S
C1000      C1004   1.549       .  S
C1000      C1002   1.552       .  S
C1000      H1006   1.106       .  S
C1001      H1007   1.086       .  S
C1001      C1002   1.374       .  D
C1002      C1413   1.514       .  S
C1003      H1008   1.086       .  S
C1003      C1004   1.363       .  D
C1004      C1400   1.504       .  S
C1009      C1010   1.545       .  S
C1009      C1015   1.535       .  S
C1009      C1013   1.538       .  S
C1009      C1390   1.558       .  S
C1010      H1017   1.079       .  S
C1010      C1011   1.369       .  D
C1011      C1012   1.550       .  S
C1011      C1403   1.500       .  S
C1012      C1016   1.548       .  S
C1012      C1014   1.556       .  S
C1012      H1018   1.104       .  S
C1013      H1019   1.085       .  S
C1013      C1014   1.374       .  D
C1014      C1443   1.520       .  S
C1015      H1020   1.086       .  S
C1015      C1016   1.361       .  D
C1016      C1380   1.503       .  S
O1021     Cu1029   2.002       .  S
O1021      C1031   1.277       .  A
O1022     Cu1029   2.006       .  S
O1022      C1032   1.278       .  A
O1023     Cu1029   1.997       .  S
O1023      C1033   1.276       .  A
O1024     Cu1029   2.005       .  S
O1024      C1034   1.278       .  A
O1025     Cu1030   2.015       .  S
O1025      C1034   1.277       .  A
O1026     Cu1030   2.009       .  S
O1026      C1033   1.277       .  A
O1027     Cu1030   2.006       .  S
O1027      C1032   1.277       .  A
O1028     Cu1030   2.007       .  S
O1028      C1031   1.278       .  A
Cu1029    Cu1030   2.373       .  S
C1031      C1583   1.480       .  S
C1032      C1373   1.478       .  S
C1033      C2250   1.472       .  S
C1034      C1433   1.481       .  S
O1035     Cu1043   2.014       .  S
O1035      C1045   1.279       .  A
O1036     Cu1043   2.004       .  S
O1036      C1046   1.277       .  A
O1037     Cu1043   2.013       .  S
O1037      C1047   1.278       .  A
O1038     Cu1043   2.008       .  S
O1038      C1048   1.277       .  A
O1039     Cu1044   2.017       .  S
O1039      C1048   1.279       .  A
O1040     Cu1044   2.016       .  S
O1040      C1047   1.279       .  A
O1041     Cu1044   2.009       .  S
O1041      C1046   1.277       .  A
O1042     Cu1044   2.022       .  S
O1042      C1045   1.278       .  A
Cu1043    Cu1044   2.373       .  S
C1045      C1663   1.489       .  S
C1046      C1360   1.473       .  S
C1047      C2283   1.483       .  S
C1048      C1423   1.484       .  S
O1049     Cu1057   2.021       .  S
O1049      C1059   1.280       .  A
O1050     Cu1057   2.029       .  S
O1050      C1060   1.278       .  A
O1051     Cu1057   2.016       .  S
O1051      C1061   1.278       .  A
O1052     Cu1057   2.018       .  S
O1052      C1062   1.279       .  A
O1053     Cu1058   2.031       .  S
O1053      C1062   1.279       .  A
O1054     Cu1058   2.043       .  S
O1054      C1061   1.282       .  A
O1055     Cu1058   2.002       .  S
O1055      C1060   1.276       .  A
O1056     Cu1058   2.005       .  S
O1056      C1059   1.276       .  A
Cu1057    Cu1058   2.363       .  S
C1059      C1543   1.479       .  S
C1060      C1350   1.509       .  S
C1061      C2293   1.496       .  S
C1062      C1393   1.493       .  S
O1063     Cu1071   1.995       .  S
O1063      C1073   1.276       .  A
O1064     Cu1071   2.006       .  S
O1064      C1074   1.277       .  A
O1065     Cu1071   2.013       .  S
O1065      C1075   1.278       .  A
O1066     Cu1071   2.018       .  S
O1066      C1076   1.279       .  A
O1067     Cu1072   2.009       .  S
O1067      C1076   1.277       .  A
O1068     Cu1072   2.010       .  S
O1068      C1075   1.278       .  A
O1069     Cu1072   2.002       .  S
O1069      C1074   1.277       .  A
O1070     Cu1072   2.010       .  S
O1070      C1073   1.278       .  A
Cu1071    Cu1072   2.371       .  S
C1073      C1463   1.473       .  S
C1074      C2323   1.470       .  S
C1075      C1340   1.481       .  S
C1076      C1630   1.501       .  S
C1077      C1078   1.542       .  S
C1077      C1083   1.532       .  S
C1077      C1081   1.539       .  S
C1077      C1333   1.553       .  S
C1078      H1085   1.085       .  S
C1078      C1079   1.378       .  D
C1079      C1080   1.561       .  S
C1079      C1410   1.539       .  S
C1080      C1084   1.563       .  S
C1080      C1082   1.551       .  S
C1080      H1086   1.077       .  S
C1081      H1087   1.086       .  S
C1081      C1082   1.371       .  D
C1082      C1320   1.532       .  S
C1083      H1088   1.081       .  S
C1083      C1084   1.358       .  D
C1084      C1733   1.497       .  S
C1089      C1090   1.521       .  S
C1089      C1095   1.536       .  S
C1089      C1093   1.541       .  S
C1089      C1683   1.537       .  S
C1090      H1097   1.087       .  S
C1090      C1091   1.363       .  D
C1091      C1092   1.559       .  S
C1091      C1310   1.492       .  S
C1092      C1096   1.558       .  S
C1092      C1094   1.556       .  S
C1092      H1098   1.108       .  S
C1093      H1099   1.086       .  S
C1093      C1094   1.368       .  D
C1094      C1300   1.506       .  S
C1095      H1100   1.085       .  S
C1095      C1096   1.365       .  D
C1096      C1323   1.512       .  S
O1101     Cu1109   2.021       .  S
O1101      C1111   1.279       .  A
O1102     Cu1109   2.024       .  S
O1102      C1112   1.279       .  A
O1103     Cu1109   2.001       .  S
O1103      C1113   1.277       .  A
O1104     Cu1109   2.021       .  S
O1104      C1114   1.279       .  A
O1105     Cu1110   2.023       .  S
O1105      C1114   1.279       .  A
O1106     Cu1110   2.008       .  S
O1106      C1113   1.277       .  A
O1107     Cu1110   2.008       .  S
O1107      C1112   1.278       .  A
O1108     Cu1110   2.021       .  S
O1108      C1111   1.278       .  A
Cu1109    Cu1110   2.371       .  S
C1111      C1313   1.483       .  S
C1112      C2203   1.484       .  S
C1113      C1290   1.484       .  S
C1114      C1783   1.489       .  S
O1115     Cu1123   2.020       .  S
O1115      C1125   1.279       .  A
O1116     Cu1123   2.018       .  S
O1116      C1126   1.280       .  A
O1117     Cu1123   1.988       .  S
O1117      C1127   1.274       .  A
O1118     Cu1123   1.992       .  S
O1118      C1128   1.274       .  A
O1119     Cu1124   2.029       .  S
O1119      C1128   1.281       .  A
O1120     Cu1124   2.041       .  S
O1120      C1127   1.282       .  A
O1121     Cu1124   2.015       .  S
O1121      C1126   1.277       .  A
O1122     Cu1124   2.010       .  S
O1122      C1125   1.278       .  A
Cu1123    Cu1124   2.370       .  S
C1125      C2353   1.485       .  S
C1126      C1713   1.496       .  S
C1127      C1880   1.484       .  S
C1128      C1343   1.477       .  S
O1129     Cu1137   2.011       .  S
O1129      C1139   1.279       .  A
O1130     Cu1137   2.019       .  S
O1130      C1140   1.279       .  A
O1131     Cu1137   2.004       .  S
O1131      C1141   1.277       .  A
O1132     Cu1137   2.001       .  S
O1132      C1142   1.276       .  A
O1133     Cu1138   1.991       .  S
O1133      C1142   1.276       .  A
O1134     Cu1138   2.004       .  S
O1134      C1141   1.276       .  A
O1135     Cu1138   2.010       .  S
O1135      C1140   1.278       .  A
O1136     Cu1138   2.006       .  S
O1136      C1139   1.277       .  A
Cu1137    Cu1138   2.374       .  S
C1139      C2193   1.486       .  S
C1140      C1673   1.485       .  S
C1141      C1823   1.469       .  S
C1142      C1280   1.467       .  S
O1143     Cu1151   1.996       .  S
O1143      C1153   1.276       .  A
O1144     Cu1151   1.998       .  S
O1144      C1154   1.275       .  A
O1145     Cu1151   1.992       .  S
O1145      C1155   1.275       .  A
O1146     Cu1151   2.012       .  S
O1146      C1156   1.278       .  A
O1147     Cu1152   2.002       .  S
O1147      C1156   1.275       .  A
O1148     Cu1152   2.004       .  S
O1148      C1155   1.278       .  A
O1149     Cu1152   2.044       .  S
O1149      C1154   1.281       .  A
O1150     Cu1152   2.019       .  S
O1150      C1153   1.280       .  A
Cu1151    Cu1152   2.368       .  S
C1153      C2263   1.484       .  S
C1154      C1330   1.506       .  S
C1155      C1913   1.474       .  S
C1156      C1363   1.471       .  S
C1157      C1158   1.538       .  S
C1157      C1163   1.546       .  S
C1157      C1161   1.523       .  S
C1157      C1270   1.553       .  S
C1158      H1165   1.078       .  S
C1158      C1159   1.371       .  D
C1159      C1160   1.552       .  S
C1159      C1973   1.505       .  S
C1160      C1164   1.553       .  S
C1160      C1162   1.554       .  S
C1160      H1166   1.107       .  S
C1161      H1167   1.088       .  S
C1161      C1162   1.363       .  D
C1162      C1260   1.493       .  S
C1163      H1168   1.086       .  S
C1163      C1164   1.371       .  D
C1164      C1383   1.514       .  S
C1169      C1170   1.533       .  S
C1169      C1175   1.539       .  S
C1169      C1173   1.540       .  S
C1169      C1250   1.547       .  S
C1170      H1177   1.083       .  S
C1170      C1171   1.361       .  D
C1171      C1172   1.561       .  S
C1171      C1263   1.490       .  S
C1172      C1176   1.539       .  S
C1172      C1174   1.554       .  S
C1172      H1178   1.104       .  S
C1173      H1179   1.081       .  S
C1173      C1174   1.376       .  D
C1174      C1943   1.523       .  S
C1175      H1180   1.086       .  S
C1175      C1176   1.363       .  D
C1176      C1303   1.498       .  S
O1181     Cu1189   1.988       .  S
O1181      C1191   1.275       .  A
O1182     Cu1189   1.984       .  S
O1182      C1192   1.275       .  A
O1183     Cu1189   1.989       .  S
O1183      C1193   1.272       .  A
O1184     Cu1189   2.001       .  S
O1184      C1194   1.276       .  A
O1185     Cu1190   2.026       .  S
O1185      C1194   1.280       .  A
O1186     Cu1190   2.021       .  S
O1186      C1193   1.277       .  A
O1187     Cu1190   2.016       .  S
O1187      C1192   1.278       .  A
O1188     Cu1190   2.012       .  S
O1188      C1191   1.278       .  A
Cu1189    Cu1190   2.364       .  S
C1191      C1283   1.471       .  S
C1192      C2083   1.474       .  S
C1193      C1933   1.515       .  S
C1194      C2173   1.482       .  S
O1195     Cu1203   2.007       .  S
O1195      C1205   1.276       .  A
O1196     Cu1203   2.006       .  S
O1196      C1206   1.277       .  A
O1197     Cu1203   2.006       .  S
O1197      C1207   1.278       .  A
O1198     Cu1203   2.025       .  S
O1198      C1208   1.278       .  A
O1199     Cu1204   2.023       .  S
O1199      C1208   1.279       .  A
O1200     Cu1204   2.025       .  S
O1200      C1207   1.279       .  A
O1201     Cu1204   2.017       .  S
O1201      C1206   1.279       .  A
O1202     Cu1204   2.007       .  S
O1202      C1205   1.277       .  A
Cu1203    Cu1204   2.363       .  S
C1205      C1353   1.502       .  S
C1206      C2163   1.483       .  S
C1207      C1273   1.489       .  S
C1208      C2310   1.483       .  S
O1209     Cu1217   2.008       .  S
O1209      C1219   1.279       .  A
O1210     Cu1217   2.022       .  S
O1210      C1220   1.278       .  A
O1211     Cu1217   2.012       .  S
O1211      C1221   1.279       .  A
O1212     Cu1217   2.009       .  S
O1212      C1222   1.278       .  A
O1213     Cu1218   2.005       .  S
O1213      C1222   1.277       .  A
O1214     Cu1218   1.992       .  S
O1214      C1221   1.275       .  A
O1215     Cu1218   1.982       .  S
O1215      C1220   1.276       .  A
O1216     Cu1218   1.995       .  S
O1216      C1219   1.275       .  A
Cu1217    Cu1218   2.370       .  S
C1219      C2220   1.483       .  S
C1220      C1253   1.482       .  S
C1221      C2040   1.478       .  S
C1222      C1293   1.481       .  S
O1223     Cu1231   1.987       .  S
O1223      C1233   1.274       .  A
O1224     Cu1231   2.003       .  S
O1224      C1234   1.276       .  A
O1225     Cu1231   2.021       .  S
O1225      C1235   1.279       .  A
O1226     Cu1231   2.017       .  S
O1226      C1236   1.278       .  A
O1227     Cu1232   2.025       .  S
O1227      C1236   1.277       .  A
O1228     Cu1232   2.023       .  S
O1228      C1235   1.279       .  A
O1229     Cu1232   2.014       .  S
O1229      C1234   1.279       .  A
O1230     Cu1232   2.011       .  S
O1230      C1233   1.278       .  A
Cu1231    Cu1232   2.366       .  S
C1233      C2133   1.471       .  S
C1234      C1370   1.481       .  S
C1235      C2233   1.489       .  S
C1236      C1980   1.513       .  S
C1237      C1238   1.559       .  S
C1237      C1243   1.534       .  S
C1237      C1241   1.530       .  S
C1237      C1503   1.573       .  S
C1238      H1245   1.080       .  S
C1238      C1239   1.387       .  D
C1239      C1240   1.564       .  S
C1239      C2333   1.538       .  S
C1240      C1244   1.554       .  S
C1240      C1242   1.556       .  S
C1240      H1246   1.102       .  S
C1241      H1247   1.087       .  S
C1241      C1242   1.360       .  D
C1242      C1863   1.501       .  S
C1243      H1248   1.087       .  S
C1243      C1244   1.363       .  D
C1244      C2523   1.512       .  S
C1249      C1250   1.421       .  A
C1249      C1254   1.407       .  A
C1249     Br1256   1.931       .  S
C1250      C1251   1.424       .  A
C1251      C1252   1.403       .  A
C1251     Br1258   1.927       .  S
C1252      C1253   1.407       .  A
C1252     Br1257   1.941       .  S
C1253      C1254   1.407       .  A
C1254     Br1255   1.924       .  S
C1259      C1260   1.415       .  A
C1259      C1264   1.408       .  A
C1259     Br1266   1.935       .  S
C1260      C1261   1.409       .  A
C1261      C1262   1.409       .  A
C1261     Br1268   1.920       .  S
C1262      C1263   1.406       .  A
C1262     Br1267   1.923       .  S
C1263      C1264   1.415       .  A
C1264     Br1265   1.934       .  S
C1269      C1270   1.426       .  A
C1269      C1274   1.417       .  A
C1269     Br1276   1.935       .  S
C1270      C1271   1.418       .  A
C1271      C1272   1.404       .  A
C1271     Br1278   1.925       .  S
C1272      C1273   1.410       .  A
C1272     Br1277   1.936       .  S
C1273      C1274   1.412       .  A
C1274     Br1275   1.932       .  S
C1279      C1280   1.407       .  A
C1279      C1284   1.404       .  A
C1279     Br1286   1.933       .  S
C1280      C1281   1.411       .  A
C1281      C1282   1.405       .  A
C1281     Br1288   1.933       .  S
C1282      C1283   1.408       .  A
C1282     Br1287   1.930       .  S
C1283      C1284   1.413       .  A
C1284     Br1285   1.932       .  S
C1289      C1290   1.415       .  A
C1289      C1294   1.409       .  A
C1289     Br1296   1.936       .  S
C1290      C1291   1.415       .  A
C1291      C1292   1.406       .  A
C1291     Br1298   1.936       .  S
C1292      C1293   1.410       .  A
C1292     Br1297   1.929       .  S
C1293      C1294   1.413       .  A
C1294     Br1295   1.934       .  S
C1299      C1300   1.419       .  A
C1299      C1304   1.415       .  A
C1299     Br1306   1.921       .  S
C1300      C1301   1.420       .  A
C1301      C1302   1.403       .  A
C1301     Br1308   1.921       .  S
C1302      C1303   1.399       .  A
C1302     Br1307   1.920       .  S
C1303      C1304   1.402       .  A
C1304     Br1305   1.916       .  S
C1309      C1310   1.408       .  A
C1309      C1314   1.410       .  A
C1309     Br1316   1.922       .  S
C1310      C1311   1.417       .  A
C1311      C1312   1.410       .  A
C1311     Br1318   1.928       .  S
C1312      C1313   1.406       .  A
C1312     Br1317   1.928       .  S
C1313      C1314   1.412       .  A
C1314     Br1315   1.929       .  S
C1319      C1320   1.422       .  A
C1319      C1324   1.413       .  A
C1319     Br1326   1.925       .  S
C1320      C1321   1.429       .  A
C1321      C1322   1.416       .  A
C1321     Br1328   1.931       .  S
C1322      C1323   1.418       .  A
C1322     Br1327   1.943       .  S
C1323      C1324   1.411       .  A
C1324     Br1325   1.927       .  S
C1329      C1330   1.419       .  A
C1329      C1334   1.412       .  A
C1329     Br1336   1.926       .  S
C1330      C1331   1.424       .  A
C1331      C1332   1.412       .  A
C1331     Br1338   1.943       .  S
C1332      C1333   1.417       .  A
C1332     Br1337   1.925       .  S
C1333      C1334   1.416       .  A
C1334     Br1335   1.937       .  S
C1339      C1340   1.413       .  A
C1339      C1344   1.410       .  A
C1339     Br1346   1.932       .  S
C1340      C1341   1.412       .  A
C1341      C1342   1.407       .  A
C1341     Br1348   1.932       .  S
C1342      C1343   1.411       .  A
C1342     Br1347   1.933       .  S
C1343      C1344   1.409       .  A
C1344     Br1345   1.931       .  S
C1349      C1350   1.423       .  A
C1349      C1354   1.413       .  A
C1349     Br1356   1.936       .  S
C1350      C1351   1.425       .  A
C1351      C1352   1.412       .  A
C1351     Br1358   1.942       .  S
C1352      C1353   1.419       .  A
C1352     Br1357   1.942       .  S
C1353      C1354   1.417       .  A
C1354     Br1355   1.941       .  S
C1359      C1360   1.412       .  A
C1359      C1364   1.407       .  A
C1359     Br1366   1.930       .  S
C1360      C1361   1.409       .  A
C1361      C1362   1.404       .  A
C1361     Br1368   1.932       .  S
C1362      C1363   1.407       .  A
C1362     Br1367   1.923       .  S
C1363      C1364   1.408       .  A
C1364     Br1365   1.930       .  S
C1369      C1370   1.413       .  A
C1369      C1374   1.409       .  A
C1369     Br1376   1.932       .  S
C1370      C1371   1.412       .  A
C1371      C1372   1.407       .  A
C1371     Br1378   1.933       .  S
C1372      C1373   1.411       .  A
C1372     Br1377   1.934       .  S
C1373      C1374   1.412       .  A
C1374     Br1375   1.934       .  S
C1379      C1380   1.412       .  A
C1379      C1384   1.418       .  A
C1379     Br1386   1.930       .  S
C1380      C1381   1.414       .  A
C1381      C1382   1.410       .  A
C1381     Br1388   1.938       .  S
C1382      C1383   1.416       .  A
C1382     Br1387   1.923       .  S
C1383      C1384   1.419       .  A
C1384     Br1385   1.922       .  S
C1389      C1390   1.426       .  A
C1389      C1394   1.417       .  A
C1389     Br1396   1.931       .  S
C1390      C1391   1.427       .  A
C1391      C1392   1.408       .  A
C1391     Br1398   1.936       .  S
C1392      C1393   1.408       .  A
C1392     Br1397   1.930       .  S
C1393      C1394   1.410       .  A
C1394     Br1395   1.931       .  S
C1399      C1400   1.415       .  A
C1399      C1404   1.415       .  A
C1399     Br1406   1.925       .  S
C1400      C1401   1.419       .  A
C1401      C1402   1.411       .  A
C1401     Br1408   1.937       .  S
C1402      C1403   1.415       .  A
C1402     Br1407   1.934       .  S
C1403      C1404   1.409       .  A
C1404     Br1405   1.925       .  S
C1409      C1410   1.433       .  A
C1409      C1414   1.411       .  A
C1409     Br1416   1.931       .  S
C1410      C1411   1.430       .  A
C1411      C1412   1.417       .  A
C1411     Br1418   1.931       .  S
C1412      C1413   1.414       .  A
C1412     Br1417   1.929       .  S
C1413      C1414   1.409       .  A
C1414     Br1415   1.934       .  S
C1419      C1420   1.409       .  A
C1419      C1424   1.411       .  A
C1419     Br1426   1.923       .  S
C1420      C1421   1.415       .  A
C1421      C1422   1.408       .  A
C1421     Br1428   1.933       .  S
C1422      C1423   1.412       .  A
C1422     Br1427   1.934       .  S
C1423      C1424   1.413       .  A
C1424     Br1425   1.932       .  S
C1429      C1430   1.423       .  A
C1429      C1434   1.415       .  A
C1429     Br1436   1.926       .  S
C1430      C1431   1.428       .  A
C1431      C1432   1.404       .  A
C1431     Br1438   1.937       .  S
C1432      C1433   1.407       .  A
C1432     Br1437   1.938       .  S
C1433      C1434   1.407       .  A
C1434     Br1435   1.930       .  S
C1439      C1440   1.404       .  A
C1439      C1444   1.414       .  A
C1439     Br1446   1.933       .  S
C1440      C1441   1.399       .  A
C1441      C1442   1.409       .  A
C1441     Br1448   1.934       .  S
C1442      C1443   1.426       .  A
C1442     Br1447   1.924       .  S
C1443      C1444   1.426       .  A
C1444     Br1445   1.926       .  S
C1449      C1450   1.415       .  A
C1449      C1454   1.416       .  A
C1449     Br1456   1.935       .  S
C1450      C1451   1.417       .  A
C1451      C1452   1.412       .  A
C1451     Br1458   1.935       .  S
C1452      C1453   1.414       .  A
C1452     Br1457   1.931       .  S
C1453      C1454   1.417       .  A
C1454     Br1455   1.920       .  S
C1459      C1460   1.422       .  A
C1459      C1464   1.407       .  A
C1459     Br1466   1.935       .  S
C1460      C1461   1.423       .  A
C1461      C1462   1.407       .  A
C1461     Br1468   1.938       .  S
C1462      C1463   1.408       .  A
C1462     Br1467   1.933       .  S
C1463      C1464   1.406       .  A
C1464     Br1465   1.934       .  S
C1469      C1470   1.415       .  A
C1469      C1474   1.410       .  A
C1469     Br1476   1.936       .  S
C1470      C1471   1.418       .  A
C1471      C1472   1.413       .  A
C1471     Br1478   1.933       .  S
C1472      C1473   1.412       .  A
C1472     Br1477   1.933       .  S
C1473      C1474   1.415       .  A
C1474     Br1475   1.936       .  S
C1479      C1480   1.403       .  A
C1479      C1484   1.413       .  A
C1479     Br1486   1.935       .  S
C1480      C1481   1.404       .  A
C1481      C1482   1.408       .  A
C1481     Br1488   1.935       .  S
C1482      C1483   1.428       .  A
C1482     Br1487   1.933       .  S
C1483      C1484   1.429       .  A
C1484     Br1485   1.929       .  S
C1489      C1490   1.412       .  A
C1489      C1494   1.403       .  A
C1489     Br1496   1.936       .  S
C1490      C1491   1.411       .  A
C1491      C1492   1.412       .  A
C1491     Br1498   1.931       .  S
C1492      C1493   1.412       .  A
C1492     Br1497   1.928       .  S
C1493      C1494   1.413       .  A
C1494     Br1495   1.937       .  S
C1499      C1500   1.416       .  A
C1499      C1504   1.417       .  A
C1499     Br1506   1.939       .  S
C1500      C1501   1.416       .  A
C1501      C1502   1.416       .  A
C1501     Br1508   1.946       .  S
C1502      C1503   1.437       .  A
C1502     Br1507   1.939       .  S
C1503      C1504   1.426       .  A
C1504     Br1505   1.923       .  S
C1509      C1510   1.409       .  A
C1509      C1514   1.405       .  A
C1509     Br1516   1.931       .  S
C1510      C1511   1.409       .  A
C1511      C1512   1.407       .  A
C1511     Br1518   1.929       .  S
C1512      C1513   1.410       .  A
C1512     Br1517   1.932       .  S
C1513      C1514   1.408       .  A
C1514     Br1515   1.932       .  S
C1519      C1520   1.411       .  A
C1519      C1524   1.410       .  A
C1519     Br1526   1.931       .  S
C1520      C1521   1.410       .  A
C1521      C1522   1.404       .  A
C1521     Br1528   1.933       .  S
C1522      C1523   1.408       .  A
C1522     Br1527   1.931       .  S
C1523      C1524   1.413       .  A
C1524     Br1525   1.932       .  S
C1529      C1530   1.413       .  A
C1529      C1534   1.410       .  A
C1529     Br1536   1.934       .  S
C1530      C1531   1.414       .  A
C1531      C1532   1.408       .  A
C1531     Br1538   1.933       .  S
C1532      C1533   1.411       .  A
C1532     Br1537   1.934       .  S
C1533      C1534   1.412       .  A
C1534     Br1535   1.931       .  S
C1539      C1540   1.421       .  A
C1539      C1544   1.416       .  A
C1539     Br1546   1.926       .  S
C1540      C1541   1.419       .  A
C1541      C1542   1.404       .  A
C1541     Br1548   1.929       .  S
C1542      C1543   1.404       .  A
C1542     Br1547   1.933       .  S
C1543      C1544   1.411       .  A
C1544     Br1545   1.932       .  S
C1549      C1550   1.414       .  A
C1549      C1554   1.412       .  A
C1549     Br1556   1.932   1_545  S
C1550      C1551   1.414       .  A
C1551      C1552   1.411       .  A
C1551     Br1558   1.934       .  S
C1552      C1553   1.414       .  A
C1552     Br1557   1.933       .  S
C1553      C1554   1.412       .  A
C1554     Br1555   1.930       .  S
C1559      C1560   1.408       .  A
C1559      C1564   1.402       .  A
C1559     Br1566   1.934       .  S
C1560      C1561   1.403       .  A
C1561      C1562   1.405       .  A
C1561     Br1568   1.932       .  S
C1562      C1563   1.422       .  A
C1562     Br1567   1.931       .  S
C1563      C1564   1.417       .  A
C1564     Br1565   1.932       .  S
C1569      C1570   1.417       .  A
C1569      C1574   1.410       .  A
C1569     Br1576   1.920       .  S
C1570      C1571   1.413       .  A
C1571      C1572   1.409       .  A
C1571     Br1578   1.930       .  S
C1572      C1573   1.413       .  A
C1572     Br1577   1.935       .  S
C1573      C1574   1.408       .  A
C1574     Br1575   1.935       .  S
C1579      C1580   1.413       .  A
C1579      C1584   1.407       .  A
C1579     Br1586   1.928       .  S
C1580      C1581   1.420       .  A
C1581      C1582   1.407       .  A
C1581     Br1588   1.940       .  S
C1582      C1583   1.414       .  A
C1582     Br1587   1.937       .  S
C1583      C1584   1.409       .  A
C1584     Br1585   1.931       .  S
C1589      C1590   1.410       .  A
C1589      C1594   1.414       .  A
C1589     Br1596   1.932       .  S
C1590      C1591   1.411       .  A
C1591      C1592   1.408       .  A
C1591     Br1598   1.931   1_545  S
C1592      C1593   1.410       .  A
C1592     Br1597   1.931       .  S
C1593      C1594   1.415       .  A
C1594     Br1595   1.922       .  S
C1599      C1600   1.412       .  A
C1599      C1604   1.404       .  A
C1599     Br1606   1.932       .  S
C1600      C1601   1.410       .  A
C1601      C1602   1.400       .  A
C1601     Br1608   1.935       .  S
C1602      C1603   1.410       .  A
C1602     Br1607   1.936       .  S
C1603      C1604   1.407       .  A
C1604     Br1605   1.932       .  S
C1609      C1610   1.415       .  A
C1609      C1614   1.412       .  A
C1609     Br1616   1.931       .  S
C1610      C1611   1.411       .  A
C1611      C1612   1.405       .  A
C1611     Br1618   1.933       .  S
C1612      C1613   1.410       .  A
C1612     Br1617   1.934       .  S
C1613      C1614   1.412       .  A
C1614     Br1615   1.932       .  S
C1619      C1620   1.414       .  A
C1619      C1624   1.414       .  A
C1619     Br1626   1.927       .  S
C1620      C1621   1.419       .  A
C1621      C1622   1.410       .  A
C1621     Br1628   1.945       .  S
C1622      C1623   1.424       .  A
C1622     Br1627   1.941       .  S
C1623      C1624   1.418       .  A
C1624     Br1625   1.937       .  S
C1629      C1630   1.415       .  A
C1629      C1634   1.409       .  A
C1629     Br1636   1.935       .  S
C1630      C1631   1.417       .  A
C1631      C1632   1.415       .  A
C1631     Br1638   1.941       .  S
C1632      C1633   1.423       .  A
C1632     Br1637   1.923       .  S
C1633      C1634   1.425       .  A
C1634     Br1635   1.938       .  S
C1639      C1640   1.425       .  A
C1639      C1644   1.413       .  A
C1639     Br1646   1.932       .  S
C1640      C1641   1.427       .  A
C1641      C1642   1.418       .  A
C1641     Br1648   1.929       .  S
C1642      C1643   1.422       .  A
C1642     Br1647   1.942       .  S
C1643      C1644   1.412       .  A
C1644     Br1645   1.930       .  S
C1649      C1650   1.414       .  A
C1649      C1654   1.415       .  A
C1649     Br1656   1.921       .  S
C1650      C1651   1.414       .  A
C1651      C1652   1.410       .  A
C1651     Br1658   1.932       .  S
C1652      C1653   1.416       .  A
C1652     Br1657   1.935       .  S
C1653      C1654   1.418       .  A
C1654     Br1655   1.935       .  S
C1659      C1660   1.422       .  A
C1659      C1664   1.417       .  A
C1659     Br1666   1.926       .  S
C1660      C1661   1.430       .  A
C1661      C1662   1.408       .  A
C1661     Br1668   1.939       .  S
C1662      C1663   1.408       .  A
C1662     Br1667   1.938       .  S
C1663      C1664   1.410       .  A
C1664     Br1665   1.931       .  S
C1669      C1670   1.424       .  A
C1669      C1674   1.408       .  A
C1669     Br1676   1.926       .  S
C1670      C1671   1.432       .  A
C1671      C1672   1.414       .  A
C1671     Br1678   1.929       .  S
C1672      C1673   1.408       .  A
C1672     Br1677   1.939       .  S
C1673      C1674   1.404       .  A
C1674     Br1675   1.931       .  S
C1679      C1680   1.405       .  A
C1679      C1684   1.401       .  A
C1679     Br1686   1.931       .  S
C1680      C1681   1.405       .  A
C1681      C1682   1.403       .  A
C1681     Br1688   1.934       .  S
C1682      C1683   1.415       .  A
C1682     Br1687   1.919       .  S
C1683      C1684   1.417       .  A
C1684     Br1685   1.930       .  S
C1689      C1690   1.411       .  A
C1689      C1694   1.414       .  A
C1689     Br1696   1.931       .  S
C1690      C1691   1.413       .  A
C1691      C1692   1.404       .  A
C1691     Br1698   1.940       .  S
C1692      C1693   1.417       .  A
C1692     Br1697   1.940       .  S
C1693      C1694   1.416       .  A
C1694     Br1695   1.928       .  S
C1699      C1700   1.416       .  A
C1699      C1704   1.412       .  A
C1699     Br1706   1.940       .  S
C1700      C1701   1.412       .  A
C1701      C1702   1.406       .  A
C1701     Br1708   1.927       .  S
C1702      C1703   1.420       .  A
C1702     Br1707   1.935       .  S
C1703      C1704   1.422       .  A
C1704     Br1705   1.928       .  S
C1709      C1710   1.409       .  A
C1709      C1714   1.417       .  A
C1709     Br1716   1.928       .  S
C1710      C1711   1.413       .  A
C1711      C1712   1.405       .  A
C1711     Br1718   1.939       .  S
C1712      C1713   1.418       .  A
C1712     Br1717   1.937       .  S
C1713      C1714   1.421       .  A
C1714     Br1715   1.931       .  S
C1719      C1720   1.417       .  A
C1719      C1724   1.412       .  A
C1719     Br1726   1.931       .  S
C1720      C1721   1.410       .  A
C1721      C1722   1.409       .  A
C1721     Br1728   1.932       .  S
C1722      C1723   1.414       .  A
C1722     Br1727   1.932       .  S
C1723      C1724   1.409       .  A
C1724     Br1725   1.931       .  S
C1729      C1730   1.416       .  A
C1729      C1734   1.418       .  A
C1729     Br1736   1.926       .  S
C1730      C1731   1.415       .  A
C1731      C1732   1.412       .  A
C1731     Br1738   1.932       .  S
C1732      C1733   1.413       .  A
C1732     Br1737   1.934       .  S
C1733      C1734   1.414       .  A
C1734     Br1735   1.931       .  S
C1739      C1740   1.414       .  A
C1739      C1744   1.411       .  A
C1739     Br1746   1.927       .  S
C1740      C1741   1.419       .  A
C1741      C1742   1.410       .  A
C1741     Br1748   1.936       .  S
C1742      C1743   1.419       .  A
C1742     Br1747   1.928       .  S
C1743      C1744   1.420       .  A
C1744     Br1745   1.936       .  S
C1749      C1750   1.413       .  A
C1749      C1754   1.406       .  A
C1749     Br1756   1.931       .  S
C1750      C1751   1.413       .  A
C1751      C1752   1.403       .  A
C1751     Br1758   1.935       .  S
C1752      C1753   1.411       .  A
C1752     Br1757   1.935       .  S
C1753      C1754   1.408       .  A
C1754     Br1755   1.932       .  S
C1759      C1760   1.412       .  A
C1759      C1764   1.413       .  A
C1759     Br1766   1.931       .  S
C1760      C1761   1.413       .  A
C1761      C1762   1.409       .  A
C1761     Br1768   1.937       .  S
C1762      C1763   1.413       .  A
C1762     Br1767   1.920       .  S
C1763      C1764   1.417       .  A
C1764     Br1765   1.934       .  S
C1769      C1770   1.410       .  A
C1769      C1774   1.406       .  A
C1769     Br1776   1.932       .  S
C1770      C1771   1.410       .  A
C1771      C1772   1.403       .  A
C1771     Br1778   1.933       .  S
C1772      C1773   1.407       .  A
C1772     Br1777   1.931   1_556  S
C1773      C1774   1.411       .  A
C1774     Br1775   1.933       .  S
C1779      C1780   1.433       .  A
C1779      C1784   1.414       .  A
C1779     Br1786   1.936       .  S
C1780      C1781   1.427       .  A
C1781      C1782   1.416       .  A
C1781     Br1788   1.929       .  S
C1782      C1783   1.408       .  A
C1782     Br1787   1.936       .  S
C1783      C1784   1.404       .  A
C1784     Br1785   1.933       .  S
C1789      C1790   1.411       .  A
C1789      C1794   1.411       .  A
C1789     Br1796   1.932       .  S
C1790      C1791   1.415       .  A
C1791      C1792   1.406       .  A
C1791     Br1798   1.936       .  S
C1792      C1793   1.409       .  A
C1792     Br1797   1.934       .  S
C1793      C1794   1.413       .  A
C1794     Br1795   1.931       .  S
C1799      C1800   1.404       .  A
C1799      C1804   1.400       .  A
C1799     Br1806   1.932       .  S
C1800      C1801   1.407       .  A
C1801      C1802   1.405       .  A
C1801     Br1808   1.934       .  S
C1802      C1803   1.422       .  A
C1802     Br1807   1.938       .  S
C1803      C1804   1.416       .  A
C1804     Br1805   1.933       .  S
C1809      C1810   1.418       .  A
C1809      C1814   1.417       .  A
C1809     Br1816   1.925       .  S
C1810      C1811   1.425       .  A
C1811      C1812   1.404       .  A
C1811     Br1818   1.927       .  S
C1812      C1813   1.405       .  A
C1812     Br1817   1.940       .  S
C1813      C1814   1.412       .  A
C1814     Br1815   1.930       .  S
C1819      C1820   1.417       .  A
C1819      C1824   1.409       .  A
C1819     Br1826   1.911       .  S
C1820      C1821   1.419       .  A
C1821      C1822   1.407       .  A
C1821     Br1828   1.912       .  S
C1822      C1823   1.400       .  A
C1822     Br1827   1.932       .  S
C1823      C1824   1.403       .  A
C1824     Br1825   1.933       .  S
C1829      C1830   1.414       .  A
C1829      C1834   1.402       .  A
C1829     Br1836   1.936       .  S
C1830      C1831   1.413       .  A
C1831      C1832   1.409       .  A
C1831     Br1838   1.933       .  S
C1832      C1833   1.414       .  A
C1832     Br1837   1.933       .  S
C1833      C1834   1.408       .  A
C1834     Br1835   1.934       .  S
C1839      C1840   1.408       .  A
C1839      C1844   1.406       .  A
C1839     Br1846   1.931       .  S
C1840      C1841   1.411       .  A
C1841      C1842   1.408       .  A
C1841     Br1848   1.931       .  S
C1842      C1843   1.410       .  A
C1842     Br1847   1.931   1_556  S
C1843      C1844   1.410       .  A
C1844     Br1845   1.931       .  S
C1849      C1850   1.416       .  A
C1849      C1854   1.413       .  A
C1849     Br1856   1.932       .  S
C1850      C1851   1.412       .  A
C1851      C1852   1.410       .  A
C1851     Br1858   1.932       .  S
C1852      C1853   1.413       .  A
C1852     Br1857   1.932       .  S
C1853      C1854   1.411       .  A
C1854     Br1855   1.933       .  S
C1859      C1860   1.414       .  A
C1859      C1864   1.412       .  A
C1859     Br1866   1.933       .  S
C1860      C1861   1.411       .  A
C1861      C1862   1.415       .  A
C1861     Br1868   1.926       .  S
C1862      C1863   1.410       .  A
C1862     Br1867   1.921       .  S
C1863      C1864   1.415       .  A
C1864     Br1865   1.934       .  S
C1869      C1870   1.430       .  A
C1869      C1874   1.408       .  A
C1869     Br1876   1.931       .  S
C1870      C1871   1.432       .  A
C1871      C1872   1.423       .  A
C1871     Br1878   1.930       .  S
C1872      C1873   1.407       .  A
C1872     Br1877   1.931       .  S
C1873      C1874   1.405       .  A
C1874     Br1875   1.938       .  S
C1879      C1880   1.404       .  A
C1879      C1884   1.414       .  A
C1879     Br1886   1.937       .  S
C1880      C1881   1.404       .  A
C1881      C1882   1.415       .  A
C1881     Br1888   1.939       .  S
C1882      C1883   1.436       .  A
C1882     Br1887   1.936       .  S
C1883      C1884   1.431       .  A
C1884     Br1885   1.930       .  S
C1889      C1890   1.415       .  A
C1889      C1894   1.409       .  A
C1889     Br1896   1.931       .  S
C1890      C1891   1.411       .  A
C1891      C1892   1.417       .  A
C1891     Br1898   1.927       .  S
C1892      C1893   1.419       .  A
C1892     Br1897   1.923       .  S
C1893      C1894   1.419       .  A
C1894     Br1895   1.937       .  S
C1899      C1900   1.431       .  A
C1899      C1904   1.413       .  A
C1899     Br1906   1.932       .  S
C1900      C1901   1.442       .  A
C1901      C1902   1.412       .  A
C1901     Br1908   1.940       .  S
C1902      C1903   1.399       .  A
C1902     Br1907   1.941       .  S
C1903      C1904   1.404       .  A
C1904     Br1905   1.938       .  S
C1909      C1910   1.423       .  A
C1909      C1914   1.411       .  A
C1909     Br1916   1.936       .  S
C1910      C1911   1.418       .  A
C1911      C1912   1.398       .  A
C1911     Br1918   1.933       .  S
C1912      C1913   1.404       .  A
C1912     Br1917   1.926       .  S
C1913      C1914   1.412       .  A
C1914     Br1915   1.935       .  S
C1919      C1920   1.408       .  A
C1919      C1924   1.407       .  A
C1919     Br1926   1.929       .  S
C1920      C1921   1.411       .  A
C1921      C1922   1.411       .  A
C1921     Br1928   1.922       .  S
C1922      C1923   1.416       .  A
C1922     Br1927   1.934       .  S
C1923      C1924   1.406       .  A
C1924     Br1925   1.916       .  S
C1929      C1930   1.422       .  A
C1929      C1934   1.415       .  A
C1929     Br1936   1.927       .  S
C1930      C1931   1.424       .  A
C1931      C1932   1.418       .  A
C1931     Br1938   1.927       .  S
C1932      C1933   1.423       .  A
C1932     Br1937   1.945       .  S
C1933      C1934   1.426       .  A
C1934     Br1935   1.950       .  S
C1939      C1940   1.401       .  A
C1939      C1944   1.413       .  A
C1939     Br1946   1.938       .  S
C1940      C1941   1.402       .  A
C1941      C1942   1.409       .  A
C1941     Br1948   1.938       .  S
C1942      C1943   1.429       .  A
C1942     Br1947   1.929       .  S
C1943      C1944   1.436       .  A
C1944     Br1945   1.934       .  S
C1949      C1950   1.416       .  A
C1949      C1954   1.409       .  A
C1949     Br1956   1.937       .  S
C1950      C1951   1.417       .  A
C1951      C1952   1.417       .  A
C1951     Br1958   1.931       .  S
C1952      C1953   1.414       .  A
C1952     Br1957   1.924       .  S
C1953      C1954   1.420       .  A
C1954     Br1955   1.940       .  S
C1959      C1960   1.415       .  A
C1959      C1964   1.411       .  A
C1959     Br1966   1.933       .  S
C1960      C1961   1.417       .  A
C1961      C1962   1.413       .  A
C1961     Br1968   1.935       .  S
C1962      C1963   1.414       .  A
C1962     Br1967   1.934       .  S
C1963      C1964   1.413       .  A
C1964     Br1965   1.933       .  S
C1969      C1970   1.400       .  A
C1969      C1974   1.405       .  A
C1969     Br1976   1.932       .  S
C1970      C1971   1.407       .  A
C1971      C1972   1.411       .  A
C1971     Br1978   1.934       .  S
C1972      C1973   1.421       .  A
C1972     Br1977   1.927       .  S
C1973      C1974   1.423       .  A
C1974     Br1975   1.934       .  S
C1979      C1980   1.426       .  A
C1979      C1984   1.416       .  A
C1979     Br1986   1.934       .  S
C1980      C1981   1.422       .  A
C1981      C1982   1.412       .  A
C1981     Br1988   1.943       .  S
C1982      C1983   1.425       .  A
C1982     Br1987   1.936       .  S
C1983      C1984   1.415       .  A
C1984     Br1985   1.933       .  S
C1989      C1990   1.411       .  A
C1989      C1994   1.414       .  A
C1989     Br1996   1.927       .  S
C1990      C1991   1.415       .  A
C1991      C1992   1.407       .  A
C1991     Br1998   1.942       .  S
C1992      C1993   1.415       .  A
C1992     Br1997   1.925       .  S
C1993      C1994   1.415       .  A
C1994     Br1995   1.923       .  S
C1999      C2000   1.416       .  A
C1999      C2004   1.415       .  A
C1999     Br2006   1.931       .  S
C2000      C2001   1.418       .  A
C2001      C2002   1.411       .  A
C2001     Br2008   1.936       .  S
C2002      C2003   1.416       .  A
C2002     Br2007   1.939       .  S
C2003      C2004   1.413       .  A
C2004     Br2005   1.927       .  S
C2009      C2010   1.410       .  A
C2009      C2014   1.408       .  A
C2009     Br2016   1.931       .  S
C2010      C2011   1.414       .  A
C2011      C2012   1.412       .  A
C2011     Br2018   1.930       .  S
C2012      C2013   1.412       .  A
C2012     Br2017   1.931       .  S
C2013      C2014   1.411       .  A
C2014     Br2015   1.930   1_556  S
C2019      C2020   1.410       .  A
C2019      C2024   1.404       .  A
C2019     Br2026   1.930       .  S
C2020      C2021   1.411       .  A
C2021      C2022   1.402       .  A
C2021     Br2028   1.934       .  S
C2022      C2023   1.407       .  A
C2022     Br2027   1.933       .  S
C2023      C2024   1.407       .  A
C2024     Br2025   1.932       .  S
C2029      C2030   1.416       .  A
C2029      C2034   1.416       .  A
C2029     Br2036   1.931   1_556  S
C2030      C2031   1.411       .  A
C2031      C2032   1.413       .  A
C2031     Br2038   1.932       .  S
C2032      C2033   1.415       .  A
C2032     Br2037   1.926       .  S
C2033      C2034   1.413       .  A
C2034     Br2035   1.931       .  S
C2039      C2040   1.403       .  A
C2039      C2044   1.403       .  A
C2039     Br2046   1.925       .  S
C2040      C2041   1.410       .  A
C2041      C2042   1.411       .  A
C2041     Br2048   1.937       .  S
C2042      C2043   1.427       .  A
C2042     Br2047   1.932       .  S
C2043      C2044   1.419       .  A
C2044     Br2045   1.925       .  S
C2049      C2050   1.412       .  A
C2049      C2054   1.406       .  A
C2049     Br2056   1.933       .  S
C2050      C2051   1.417       .  A
C2051      C2052   1.411       .  A
C2051     Br2058   1.933       .  S
C2052      C2053   1.411       .  A
C2052     Br2057   1.934       .  S
C2053      C2054   1.411       .  A
C2054     Br2055   1.934       .  S
C2059      C2060   1.404       .  A
C2059      C2064   1.412       .  A
C2059     Br2066   1.935       .  S
C2060      C2061   1.404       .  A
C2061      C2062   1.410       .  A
C2061     Br2068   1.931       .  S
C2062      C2063   1.421       .  A
C2062     Br2067   1.926       .  S
C2063      C2064   1.425       .  A
C2064     Br2065   1.920       .  S
C2069      C2070   1.413       .  A
C2069      C2074   1.411       .  A
C2069     Br2076   1.924       .  S
C2070      C2071   1.409       .  A
C2071      C2072   1.402       .  A
C2071     Br2078   1.932       .  S
C2072      C2073   1.413       .  A
C2072     Br2077   1.936       .  S
C2073      C2074   1.412       .  A
C2074     Br2075   1.932       .  S
C2079      C2080   1.423       .  A
C2079      C2084   1.414       .  A
C2079     Br2086   1.929       .  S
C2080      C2081   1.422       .  A
C2081      C2082   1.400       .  A
C2081     Br2088   1.933       .  S
C2082      C2083   1.407       .  A
C2082     Br2087   1.938       .  S
C2083      C2084   1.408       .  A
C2084     Br2085   1.932       .  S
C2089      C2090   1.412       .  A
C2089      C2094   1.412       .  A
C2089     Br2096   1.921       .  S
C2090      C2091   1.413       .  A
C2091      C2092   1.407       .  A
C2091     Br2098   1.932       .  S
C2092      C2093   1.409       .  A
C2092     Br2097   1.930       .  S
C2093      C2094   1.411       .  A
C2094     Br2095   1.933       .  S
C2099      C2100   1.415       .  A
C2099      C2104   1.411       .  A
C2099     Br2106   1.933       .  S
C2100      C2101   1.417       .  A
C2101      C2102   1.413       .  A
C2101     Br2108   1.930       .  S
C2102      C2103   1.411       .  A
C2102     Br2107   1.933   1_556  S
C2103      C2104   1.412       .  A
C2104     Br2105   1.934       .  S
C2109      C2110   1.423       .  A
C2109      C2114   1.410       .  A
C2109     Br2116   1.943       .  S
C2110      C2111   1.425       .  A
C2111      C2112   1.410       .  A
C2111     Br2118   1.943       .  S
C2112      C2113   1.416       .  A
C2112     Br2117   1.939       .  S
C2113      C2114   1.420       .  A
C2114     Br2115   1.942       .  S
C2119      C2120   1.428       .  A
C2119      C2124   1.420       .  A
C2119     Br2126   1.933       .  S
C2120      C2121   1.419       .  A
C2121      C2122   1.398       .  A
C2121     Br2128   1.931       .  S
C2122      C2123   1.408       .  A
C2122     Br2127   1.935       .  S
C2123      C2124   1.414       .  A
C2124     Br2125   1.930       .  S
C2129      C2130   1.425       .  A
C2129      C2134   1.408       .  A
C2129     Br2136   1.938       .  S
C2130      C2131   1.426       .  A
C2131      C2132   1.404       .  A
C2131     Br2138   1.939       .  S
C2132      C2133   1.405       .  A
C2132     Br2137   1.936       .  S
C2133      C2134   1.404       .  A
C2134     Br2135   1.928       .  S
C2139      C2140   1.414       .  A
C2139      C2144   1.414       .  A
C2139     Br2146   1.927       .  S
C2140      C2141   1.419       .  A
C2141      C2142   1.408       .  A
C2141     Br2148   1.930       .  S
C2142      C2143   1.412       .  A
C2142     Br2147   1.939       .  S
C2143      C2144   1.411       .  A
C2144     Br2145   1.926       .  S
C2149      C2150   1.423       .  A
C2149      C2154   1.405       .  A
C2149     Br2156   1.938       .  S
C2150      C2151   1.420       .  A
C2151      C2152   1.404       .  A
C2151     Br2158   1.923       .  S
C2152      C2153   1.401       .  A
C2152     Br2157   1.926       .  S
C2153      C2154   1.408       .  A
C2154     Br2155   1.934       .  S
C2159      C2160   1.413       .  A
C2159      C2164   1.405       .  A
C2159     Br2166   1.928       .  S
C2160      C2161   1.409       .  A
C2161      C2162   1.412       .  A
C2161     Br2168   1.921       .  S
C2162      C2163   1.414       .  A
C2162     Br2167   1.932       .  S
C2163      C2164   1.411       .  A
C2164     Br2165   1.934       .  S
C2169      C2170   1.410       .  A
C2169      C2174   1.412       .  A
C2169     Br2176   1.929       .  S
C2170      C2171   1.410       .  A
C2171      C2172   1.405       .  A
C2171     Br2178   1.928       .  S
C2172      C2173   1.411       .  A
C2172     Br2177   1.934       .  S
C2173      C2174   1.414       .  A
C2174     Br2175   1.930       .  S
C2179      C2180   1.422       .  A
C2179      C2184   1.417       .  A
C2179     Br2186   1.933       .  S
C2180      C2181   1.422       .  A
C2181      C2182   1.412       .  A
C2181     Br2188   1.941       .  S
C2182      C2183   1.420       .  A
C2182     Br2187   1.943       .  S
C2183      C2184   1.420       .  A
C2184     Br2185   1.938       .  S
C2189      C2190   1.416       .  A
C2189      C2194   1.408       .  A
C2189     Br2196   1.928       .  S
C2190      C2191   1.415       .  A
C2191      C2192   1.410       .  A
C2191     Br2198   1.934       .  S
C2192      C2193   1.414       .  A
C2192     Br2197   1.935       .  S
C2193      C2194   1.412       .  A
C2194     Br2195   1.937       .  S
C2199      C2200   1.414       .  A
C2199      C2204   1.412       .  A
C2199     Br2206   1.931       .  S
C2200      C2201   1.412       .  A
C2201      C2202   1.410       .  A
C2201     Br2208   1.932       .  S
C2202      C2203   1.413       .  A
C2202     Br2207   1.933       .  S
C2203      C2204   1.410       .  A
C2204     Br2205   1.931       .  S
C2209      C2210   1.417       .  A
C2209      C2214   1.411       .  A
C2209     Br2216   1.936       .  S
C2210      C2211   1.416       .  A
C2211      C2212   1.407       .  A
C2211     Br2218   1.926       .  S
C2212      C2213   1.411       .  A
C2212     Br2217   1.937       .  S
C2213      C2214   1.416       .  A
C2214     Br2215   1.937       .  S
C2219      C2220   1.411       .  A
C2219      C2224   1.406       .  A
C2219     Br2226   1.935       .  S
C2220      C2221   1.412       .  A
C2221      C2222   1.407       .  A
C2221     Br2228   1.933       .  S
C2222      C2223   1.416       .  A
C2222     Br2227   1.927       .  S
C2223      C2224   1.415       .  A
C2224     Br2225   1.936       .  S
C2229      C2230   1.414       .  A
C2229      C2234   1.414       .  A
C2229     Br2236   1.930       .  S
C2230      C2231   1.411       .  A
C2231      C2232   1.410       .  A
C2231     Br2238   1.932       .  S
C2232      C2233   1.413       .  A
C2232     Br2237   1.932       .  S
C2233      C2234   1.413       .  A
C2234     Br2235   1.931       .  S
C2239      C2240   1.411       .  A
C2239      C2244   1.409       .  A
C2239     Br2246   1.930       .  S
C2240      C2241   1.413       .  A
C2241      C2242   1.407       .  A
C2241     Br2248   1.933       .  S
C2242      C2243   1.410       .  A
C2242     Br2247   1.933       .  S
C2243      C2244   1.410       .  A
C2244     Br2245   1.931       .  S
C2249      C2250   1.410       .  A
C2249      C2254   1.405       .  A
C2249     Br2256   1.930       .  S
C2250      C2251   1.412       .  A
C2251      C2252   1.405       .  A
C2251     Br2258   1.933       .  S
C2252      C2253   1.410       .  A
C2252     Br2257   1.934       .  S
C2253      C2254   1.409       .  A
C2254     Br2255   1.933       .  S
C2259      C2260   1.411       .  A
C2259      C2264   1.409       .  A
C2259     Br2266   1.929       .  S
C2260      C2261   1.414       .  A
C2261      C2262   1.407       .  A
C2261     Br2268   1.937       .  S
C2262      C2263   1.413       .  A
C2262     Br2267   1.934       .  S
C2263      C2264   1.415       .  A
C2264     Br2265   1.934       .  S
C2269      C2270   1.409       .  A
C2269      C2274   1.405       .  A
C2269     Br2276   1.924       .  S
C2270      C2271   1.410       .  A
C2271      C2272   1.408       .  A
C2271     Br2278   1.932       .  S
C2272      C2273   1.412       .  A
C2272     Br2277   1.930       .  S
C2273      C2274   1.408       .  A
C2274     Br2275   1.933       .  S
C2279      C2280   1.412       .  A
C2279      C2284   1.410       .  A
C2279     Br2286   1.931       .  S
C2280      C2281   1.414       .  A
C2281      C2282   1.412       .  A
C2281     Br2288   1.930       .  S
C2282      C2283   1.413       .  A
C2282     Br2287   1.934       .  S
C2283      C2284   1.410       .  A
C2284     Br2285   1.931       .  S
C2289      C2290   1.414       .  A
C2289      C2294   1.416       .  A
C2289     Br2296   1.931       .  S
C2290      C2291   1.411       .  A
C2291      C2292   1.414       .  A
C2291     Br2298   1.929       .  S
C2292      C2293   1.416       .  A
C2292     Br2297   1.932       .  S
C2293      C2294   1.414       .  A
C2294     Br2295   1.928       .  S
C2299      C2300   1.413       .  A
C2299      C2304   1.410       .  A
C2299     Br2306   1.935       .  S
C2300      C2301   1.412       .  A
C2301      C2302   1.406       .  A
C2301     Br2308   1.933       .  S
C2302      C2303   1.414       .  A
C2302     Br2307   1.935       .  S
C2303      C2304   1.413       .  A
C2304     Br2305   1.933       .  S
C2309      C2310   1.410       .  A
C2309      C2314   1.412       .  A
C2309     Br2316   1.929       .  S
C2310      C2311   1.409       .  A
C2311      C2312   1.411       .  A
C2311     Br2318   1.927       .  S
C2312      C2313   1.412       .  A
C2312     Br2317   1.925       .  S
C2313      C2314   1.410       .  A
C2314     Br2315   1.923       .  S
C2319      C2320   1.409       .  A
C2319      C2324   1.406       .  A
C2319     Br2326   1.931       .  S
C2320      C2321   1.410       .  A
C2321      C2322   1.407       .  A
C2321     Br2328   1.928       .  S
C2322      C2323   1.407       .  A
C2322     Br2327   1.930       .  S
C2323      C2324   1.410       .  A
C2324     Br2325   1.930       .  S
C2329      C2330   1.406       .  A
C2329      C2334   1.416       .  A
C2329     Br2336   1.929       .  S
C2330      C2331   1.413       .  A
C2331      C2332   1.422       .  A
C2331     Br2338   1.937       .  S
C2332      C2333   1.431       .  A
C2332     Br2337   1.928       .  S
C2333      C2334   1.425       .  A
C2334     Br2335   1.925       .  S
C2339      C2340   1.418       .  A
C2339      C2344   1.418       .  A
C2339     Br2346   1.933       .  S
C2340      C2341   1.410       .  A
C2341      C2342   1.411       .  A
C2341     Br2348   1.933       .  S
C2342      C2343   1.417       .  A
C2342     Br2347   1.933       .  S
C2343      C2344   1.420       .  A
C2344     Br2345   1.935       .  S
C2349      C2350   1.410       .  A
C2349      C2354   1.410       .  A
C2349     Br2356   1.932       .  S
C2350      C2351   1.413       .  A
C2351      C2352   1.411       .  A
C2351     Br2358   1.932       .  S
C2352      C2353   1.412       .  A
C2352     Br2357   1.933       .  S
C2353      C2354   1.414       .  A
C2354     Br2355   1.932       .  S
C2359      C2360   1.420       .  A
C2359      C2364   1.413       .  A
C2359     Br2366   1.925       .  S
C2360      C2361   1.418       .  A
C2361      C2362   1.409       .  A
C2361     Br2368   1.918       .  S
C2362      C2363   1.413       .  A
C2362     Br2367   1.940       .  S
C2363      C2364   1.414       .  A
C2364     Br2365   1.937       .  S
C2369      C2370   1.402       .  A
C2369      C2374   1.408       .  A
C2369     Br2376   1.930       .  S
C2370      C2371   1.414       .  A
C2371      C2372   1.415       .  A
C2371     Br2378   1.938       .  S
C2372      C2373   1.424       .  A
C2372     Br2377   1.936       .  S
C2373      C2374   1.424       .  A
C2374     Br2375   1.933       .  S
C2379      C2380   1.405       .  A
C2379      C2384   1.400       .  A
C2379     Br2386   1.917       .  S
C2380      C2381   1.415       .  A
C2381      C2382   1.423       .  A
C2381     Br2388   1.931       .  S
C2382      C2383   1.423       .  A
C2382     Br2387   1.924       .  S
C2383      C2384   1.421       .  A
C2384     Br2385   1.941       .  S
C2389      C2390   1.429       .  A
C2389      C2394   1.406       .  A
C2389     Br2396   1.942       .  S
C2390      C2391   1.423       .  A
C2391      C2392   1.414       .  A
C2391     Br2398   1.933       .  S
C2392      C2393   1.420       .  A
C2392     Br2397   1.942       .  S
C2393      C2394   1.412       .  A
C2394     Br2395   1.942       .  S
C2399      C2400   1.410       .  A
C2399      C2404   1.411       .  A
C2399     Br2406   1.932       .  S
C2400      C2401   1.406       .  A
C2401      C2402   1.414       .  A
C2401     Br2408   1.922       .  S
C2402      C2403   1.423       .  A
C2402     Br2407   1.934       .  S
C2403      C2404   1.423       .  A
C2404     Br2405   1.937       .  S
C2409      C2410   1.420       .  A
C2409      C2414   1.414       .  A
C2409     Br2416   1.930       .  S
C2410      C2411   1.420       .  A
C2411      C2412   1.406       .  A
C2411     Br2418   1.918       .  S
C2412      C2413   1.401       .  A
C2412     Br2417   1.935       .  S
C2413      C2414   1.406       .  A
C2414     Br2415   1.930       .  S
C2419      C2420   1.410       .  A
C2419      C2424   1.409       .  A
C2419     Br2426   1.930       .  S
C2420      C2421   1.405       .  A
C2421      C2422   1.413       .  A
C2421     Br2428   1.926       .  S
C2422      C2423   1.422       .  A
C2422     Br2427   1.934       .  S
C2423      C2424   1.420       .  A
C2424     Br2425   1.935       .  S
C2429      C2430   1.420       .  A
C2429      C2434   1.386       .  A
C2429     Br2436   1.934       .  S
C2430      C2431   1.427       .  A
C2431      C2432   1.423       .  A
C2431     Br2438   1.931       .  S
C2432      C2433   1.419       .  A
C2432     Br2437   1.927       .  S
C2433      C2434   1.408       .  A
C2434     Br2435   1.933       .  S
C2439      C2440   1.407       .  A
C2439      C2444   1.415       .  A
C2439     Br2446   1.925       .  S
C2440      C2441   1.410       .  A
C2441      C2442   1.407       .  A
C2441     Br2448   1.924       .  S
C2442      C2443   1.419       .  A
C2442     Br2447   1.937       .  S
C2443      C2444   1.423       .  A
C2444     Br2445   1.933       .  S
C2449      C2450   1.401       .  A
C2449      C2454   1.413       .  A
C2449     Br2456   1.937   1_556  S
C2450      C2451   1.410       .  A
C2451      C2452   1.418       .  A
C2451     Br2458   1.940       .  S
C2452      C2453   1.434       .  A
C2452     Br2457   1.934       .  S
C2453      C2454   1.438       .  A
C2454     Br2455   1.940       .  S
C2459      C2460   1.421       .  A
C2459      C2464   1.412       .  A
C2459     Br2466   1.919       .  S
C2460      C2461   1.418       .  A
C2461      C2462   1.410       .  A
C2461     Br2468   1.918       .  S
C2462      C2463   1.404       .  A
C2462     Br2467   1.929       .  S
C2463      C2464   1.403       .  A
C2464     Br2465   1.932       .  S
C2469      C2470   1.411       .  A
C2469      C2474   1.412       .  A
C2469     Br2476   1.927       .  S
C2470      C2471   1.418       .  A
C2471      C2472   1.409       .  A
C2471     Br2478   1.940       .  S
C2472      C2473   1.416       .  A
C2472     Br2477   1.933       .  S
C2473      C2474   1.414       .  A
C2474     Br2475   1.931   1_556  S
C2479      C2480   1.411       .  A
C2479      C2484   1.414       .  A
C2479     Br2486   1.927       .  S
C2480      C2481   1.409       .  A
C2481      C2482   1.402       .  A
C2481     Br2488   1.922       .  S
C2482      C2483   1.422       .  A
C2482     Br2487   1.943       .  S
C2483      C2484   1.425       .  A
C2484     Br2485   1.927       .  S
C2489      C2490   1.407       .  A
C2489      C2494   1.399       .  A
C2489     Br2496   1.931       .  S
C2490      C2491   1.417       .  A
C2491      C2492   1.405       .  A
C2491     Br2498   1.940       .  S
C2492      C2493   1.420       .  A
C2492     Br2497   1.931       .  S
C2493      C2494   1.425       .  A
C2494     Br2495   1.938       .  S
C2499      C2500   1.414       .  A
C2499      C2504   1.409       .  A
C2499     Br2506   1.932       .  S
C2500      C2501   1.413       .  A
C2501      C2502   1.409       .  A
C2501     Br2508   1.924       .  S
C2502      C2503   1.410       .  A
C2502     Br2507   1.931       .  S
C2503      C2504   1.406       .  A
C2504     Br2505   1.924       .  S
C2509      C2510   1.414       .  A
C2509      C2514   1.405       .  A
C2509     Br2516   1.937       .  S
C2510      C2511   1.421       .  A
C2511      C2512   1.406       .  A
C2511     Br2518   1.935       .  S
C2512      C2513   1.426       .  A
C2512     Br2517   1.950       .  S
C2513      C2514   1.421       .  A
C2514     Br2515   1.936       .  S
C2519      C2520   1.420       .  A
C2519      C2524   1.413       .  A
C2519     Br2526   1.934       .  S
C2520      C2521   1.414       .  A
C2521      C2522   1.414       .  A
C2521     Br2528   1.933       .  S
C2522      C2523   1.420       .  A
C2522     Br2527   1.920       .  S
C2523      C2524   1.414       .  A
C2524     Br2525   1.925       .  S
C2529      C2530   1.406       .  A
C2529      C2534   1.405       .  A
C2529     Br2536   1.918       .  S
C2530      C2531   1.409       .  A
C2531      C2532   1.407       .  A
C2531     Br2538   1.926       .  S
C2532      C2533   1.407       .  A
C2532     Br2537   1.918       .  S
C2533      C2534   1.409       .  A
C2534     Br2535   1.926       .  S
C2539      C2540   1.424       .  A
C2539      C2544   1.416       .  A
C2539     Br2546   1.934       .  S
C2540      C2541   1.428       .  A
C2541      C2542   1.404       .  A
C2541     Br2548   1.932       .  S
C2542      C2543   1.403       .  A
C2542     Br2547   1.938       .  S
C2543      C2544   1.410       .  A
C2544     Br2545   1.931       .  S
C2549      C2550   1.431       .  A
C2549      C2554   1.410       .  A
C2549     Br2556   1.924       .  S
C2550      C2551   1.419       .  A
C2551      C2552   1.413       .  A
C2551     Br2558   1.925       .  S
C2552      C2553   1.407       .  A
C2552     Br2557   1.931       .  S
C2553      C2554   1.399       .  A
C2554     Br2555   1.937       .  S
C2559      C2560   1.407       .  A
C2559      C2564   1.407       .  A
C2559     Br2566   1.935       .  S
C2560      C2561   1.401       .  A
C2561      C2562   1.409       .  A
C2561     Br2568   1.924       .  S
C2562      C2563   1.432       .  A
C2562     Br2567   1.927       .  S
C2563      C2564   1.432       .  A
C2564     Br2565   1.934       .  S
C2569      C2570   1.404       .  A
C2569      C2574   1.415       .  A
C2569     Br2576   1.928       .  S
C2570      C2571   1.404       .  A
C2571      C2572   1.405       .  A
C2571     Br2578   1.935       .  S
C2572      C2573   1.433       .  A
C2572     Br2577   1.942       .  S
C2573      C2574   1.423       .  A
C2574     Br2575   1.923       .  S
C2579      C2580   1.402       .  A
C2579      C2584   1.401       .  A
C2579     Br2586   1.938       .  S
C2580      C2581   1.403       .  A
C2581      C2582   1.408       .  A
C2581     Br2588   1.932       .  S
C2582      C2583   1.422       .  A
C2582     Br2587   1.926       .  S
C2583      C2584   1.423       .  A
C2584     Br2585   1.921       .  S
C2589      C2590   1.426       .  A
C2589      C2594   1.412       .  A
C2589     Br2596   1.924       .  S
C2590      C2591   1.427       .  A
C2591      C2592   1.414       .  A
C2591     Br2598   1.936       .  S
C2592      C2593   1.406       .  A
C2592     Br2597   1.932       .  S
C2593      C2594   1.404       .  A
C2594     Br2595   1.936       .  S
C2599      C2600   1.410       .  A
C2599      C2604   1.417       .  A
C2599     Br2606   1.933       .  S
C2600      C2601   1.409       .  A
C2601      C2602   1.417       .  A
C2601     Br2608   1.934       .  S
C2602      C2603   1.424       .  A
C2602     Br2607   1.921       .  S
C2603      C2604   1.426       .  A
C2604     Br2605   1.923       .  S
C2609      C2610   1.416       .  A
C2609      C2614   1.406       .  A
C2609     Br2616   1.937       .  S
C2610      C2611   1.410       .  A
C2611      C2612   1.417       .  A
C2611     Br2618   1.926       .  S
C2612      C2613   1.412       .  A
C2612     Br2617   1.922       .  S
C2613      C2614   1.415       .  A
C2614     Br2615   1.934       .  S
C2619      C2620   1.418       .  A
C2619      C2624   1.412       .  A
C2619     Br2626   1.942       .  S
C2620      C2621   1.415       .  A
C2621      C2622   1.414       .  A
C2621     Br2628   1.935       .  S
C2622      C2623   1.426       .  A
C2622     Br2627   1.936       .  S
C2623      C2624   1.424       .  A
C2624     Br2625   1.934       .  S
C2629      C2630   1.413       .  A
C2629      C2634   1.408       .  A
C2629     Br2636   1.939       .  S
C2630      C2631   1.414       .  A
C2631      C2632   1.413       .  A
C2631     Br2638   1.925       .  S
C2632      C2633   1.417       .  A
C2632     Br2637   1.935       .  S
C2633      C2634   1.420       .  A
C2634     Br2635   1.938       .  S
C2639      C2640   1.410       .  A
C2639      C2644   1.411       .  A
C2639     Br2646   1.933       .  S
C2640      C2641   1.427       .  A
C2641      C2642   1.408       .  A
C2641     Br2648   1.938       .  S
C2642      C2643   1.419       .  A
C2642     Br2647   1.942       .  S
C2643      C2644   1.425       .  A
C2644     Br2645   1.926       .  S
C2649      C2650   1.408       .  A
C2649      C2654   1.403       .  A
C2649     Br2656   1.917       .  S
C2650      C2651   1.406       .  A
C2651      C2652   1.414       .  A
C2651     Br2658   1.924       .  S
C2652      C2653   1.417       .  A
C2652     Br2657   1.923       .  S
C2653      C2654   1.415       .  A
C2654     Br2655   1.937       .  S
C2659      C2660   1.402       .  A
C2659      C2664   1.411       .  A
C2659     Br2666   1.933       .  S
C2660      C2661   1.400       .  A
C2661      C2662   1.401       .  A
C2661     Br2668   1.940       .  S
C2662      C2663   1.431       .  A
C2662     Br2667   1.935       .  S
C2663      C2664   1.428       .  A
C2664     Br2665   1.935       .  S
C2669      C2670   1.414       .  A
C2669      C2674   1.407       .  A
C2669     Br2676   1.916       .  S
C2670      C2671   1.423       .  A
C2671      C2672   1.411       .  A
C2671     Br2678   1.934       .  S
C2672      C2673   1.409       .  A
C2672     Br2677   1.930   1_556  S
C2673      C2674   1.406       .  A
C2674     Br2675   1.933       .  S
C2679      C2680   1.411       .  A
C2679      C2684   1.417       .  A
C2679     Br2686   1.937       .  S
C2680      C2681   1.400       .  A
C2681      C2682   1.400       .  A
C2681     Br2688   1.919       .  S
C2682      C2683   1.425       .  A
C2682     Br2687   1.939       .  S
C2683      C2684   1.430       .  A
C2684     Br2685   1.926       .  S
C2689      C2690   1.420       .  A
C2689      C2694   1.407       .  A
C2689     Br2696   1.935       .  S
C2690      C2691   1.418       .  A
C2691      C2692   1.415       .  A
C2691     Br2698   1.928       .  S
C2692      C2693   1.407       .  A
C2692     Br2697   1.927       .  S
C2693      C2694   1.411       .  A
C2694     Br2695   1.938       .  S
C2699      C2700   1.433       .  A
C2699      C2704   1.414       .  A
C2699     Br2706   1.938       .  S
C2700      C2701   1.427       .  A
C2701      C2702   1.422       .  A
C2701     Br2708   1.930       .  S
C2702      C2703   1.422       .  A
C2702     Br2707   1.939       .  S
C2703      C2704   1.416       .  A
C2704     Br2705   1.940       .  S
C2709      C2710   1.423       .  A
C2709      C2714   1.411       .  A
C2709     Br2716   1.926       .  S
C2710      C2711   1.437       .  A
C2711      C2712   1.416       .  A
C2711     Br2718   1.928       .  S
C2712      C2713   1.403       .  A
C2712     Br2717   1.941       .  S
C2713      C2714   1.405       .  A
C2714     Br2715   1.932   1_556  S
C2719      C2720   1.417       .  A
C2719      C2724   1.399       .  A
C2719     Br2726   1.939       .  S
C2720      C2721   1.417       .  A
C2721      C2722   1.415       .  A
C2721     Br2728   1.925       .  S
C2722      C2723   1.406       .  A
C2722     Br2727   1.917       .  S
C2723      C2724   1.402       .  A
C2724     Br2725   1.912       .  S
C2729      C2730   1.408       .  A
C2729      C2734   1.415       .  A
C2729     Br2736   1.925       .  S
C2730      C2731   1.401       .  A
C2731      C2732   1.390       .  A
C2731     Br2738   1.922       .  S
C2732      C2733   1.415       .  A
C2732     Br2737   1.936       .  S
C2733      C2734   1.422       .  A
C2734     Br2735   1.924       .  S
C2739      C2740   1.413       .  A
C2739      C2744   1.409       .  A
C2739     Br2746   1.929       .  S
C2740      C2741   1.414       .  A
C2741      C2742   1.412       .  A
C2741     Br2748   1.917       .  S
C2742      C2743   1.411       .  A
C2742     Br2747   1.930       .  S
C2743      C2744   1.414       .  A
C2744     Br2745   1.935       .  S
C2749      C2750   1.418       .  A
C2749      C2754   1.411       .  A
C2749     Br2756   1.927       .  S
C2750      C2751   1.425       .  A
C2751      C2752   1.409       .  A
C2751     Br2758   1.940       .  S
C2752      C2753   1.410       .  A
C2752     Br2757   1.937       .  S
C2753      C2754   1.407       .  A
C2754     Br2755   1.931       .  S
C2759      C2760   1.418       .  A
C2759      C2764   1.408       .  A
C2759     Br2766   1.930       .  S
C2760      C2761   1.422       .  A
C2761      C2762   1.409       .  A
C2761     Br2768   1.931       .  S
C2762      C2763   1.411       .  A
C2762     Br2767   1.935       .  S
C2763      C2764   1.409       .  A
C2764     Br2765   1.932       .  S
C2769      C2770   1.414       .  A
C2769      C2774   1.410       .  A
C2769     Br2776   1.926       .  S
C2770      C2771   1.413       .  A
C2771      C2772   1.418       .  A
C2771     Br2778   1.927       .  S
C2772      C2773   1.422       .  A
C2772     Br2777   1.925       .  S
C2773      C2774   1.415       .  A
C2774     Br2775   1.934       .  S
C2779      C2780   1.412       .  A
C2779      C2784   1.412       .  A
C2779     Br2786   1.933       .  S
C2780      C2781   1.413       .  A
C2781      C2782   1.412       .  A
C2781     Br2788   1.933       .  S
C2782      C2783   1.415       .  A
C2782     Br2787   1.932       .  S
C2783      C2784   1.412       .  A
C2784     Br2785   1.920       .  S
C2789      C2790   1.415       .  A
C2789      C2794   1.412       .  A
C2789     Br2796   1.924       .  S
C2790      C2791   1.409       .  A
C2791      C2792   1.405       .  A
C2791     Br2798   1.912       .  S
C2792      C2793   1.409       .  A
C2792     Br2797   1.933       .  S
C2793      C2794   1.409       .  A
C2794     Br2795   1.925       .  S
C2799      C2800   1.420       .  A
C2799      C2804   1.413       .  A
C2799     Br2806   1.942       .  S
C2800      C2801   1.413       .  A
C2801      C2802   1.405       .  A
C2801     Br2808   1.939       .  S
C2802      C2803   1.420       .  A
C2802     Br2807   1.919       .  S
C2803      C2804   1.428       .  A
C2804     Br2805   1.943       .  S
C2809      C2810   1.414       .  A
C2809      C2814   1.411       .  A
C2809     Br2816   1.937       .  S
C2810      C2811   1.406       .  A
C2811      C2812   1.411       .  A
C2811     Br2818   1.915       .  S
C2812      C2813   1.420       .  A
C2812     Br2817   1.932       .  S
C2813      C2814   1.425       .  A
C2814     Br2815   1.931       .  S
C2819      C2820   1.430       .  A
C2819      C2824   1.407       .  A
C2819     Br2826   1.922       .  S
C2820      C2821   1.429       .  A
C2821      C2822   1.416       .  A
C2821     Br2828   1.928       .  S
C2822      C2823   1.406       .  A
C2822     Br2827   1.935       .  S
C2823      C2824   1.397       .  A
C2824     Br2825   1.938       .  S
C2829      C2830   1.424       .  A
C2829      C2834   1.416       .  A
C2829     Br2836   1.928       .  S
C2830      C2831   1.428       .  A
C2831      C2832   1.410       .  A
C2831     Br2838   1.938       .  S
C2832      C2833   1.409       .  A
C2832     Br2837   1.927       .  S
C2833      C2834   1.415       .  A
C2834     Br2835   1.931       .  S
C2839      C2840   1.424       .  A
C2839      C2844   1.415       .  A
C2839     Br2846   1.931       .  S
C2840      C2841   1.427       .  A
C2841      C2842   1.403       .  A
C2841     Br2848   1.941       .  S
C2842      C2843   1.406       .  A
C2842     Br2847   1.938       .  S
C2843      C2844   1.411       .  A
C2844     Br2845   1.935   1_545  S
C2849      C2850   1.415       .  A
C2849      C2854   1.413       .  A
C2849     Br2856   1.937       .  S
C2850      C2851   1.409       .  A
C2851      C2852   1.418       .  A
C2851     Br2858   1.926       .  S
C2852      C2853   1.420       .  A
C2852     Br2857   1.930       .  S
C2853      C2854   1.420       .  A
C2854     Br2855   1.936       .  S
C2859      C2860   1.416       .  A
C2859      C2864   1.411       .  A
C2859     Br2866   1.940       .  S
C2860      C2861   1.417       .  A
C2861      C2862   1.410       .  A
C2861     Br2868   1.930       .  S
C2862      C2863   1.426       .  A
C2862     Br2867   1.941       .  S
C2863      C2864   1.424       .  A
C2864     Br2865   1.929       .  S
C2869      C2870   1.410       .  A
C2869      C2874   1.403       .  A
C2869     Br2876   1.935       .  S
C2870      C2871   1.419       .  A
C2871      C2872   1.410       .  A
C2871     Br2878   1.943       .  S
C2872      C2873   1.427       .  A
C2872     Br2877   1.946       .  S
C2873      C2874   1.419       .  A
C2874     Br2875   1.926       .  S
C2879      C2880   1.422       .  A
C2879      C2884   1.413       .  A
C2879     Br2886   1.931       .  S
C2880      C2881   1.415       .  A
C2881      C2882   1.408       .  A
C2881     Br2888   1.927       .  S
C2882      C2883   1.413       .  A
C2882     Br2887   1.933       .  S
C2883      C2884   1.418       .  A
C2884     Br2885   1.934       .  S
C2889      C2890   1.411       .  A
C2889      C2894   1.413       .  A
C2889     Br2896   1.929       .  S
C2890      C2891   1.411       .  A
C2891      C2892   1.403       .  A
C2891     Br2898   1.939       .  S
C2892      C2893   1.416       .  A
C2892     Br2897   1.935       .  S
C2893      C2894   1.413       .  A
C2894     Br2895   1.928       .  S
C2899      C2900   1.419       .  A
C2899      C2904   1.408       .  A
C2899     Br2906   1.940       .  S
C2900      C2901   1.415       .  A
C2901      C2902   1.413       .  A
C2901     Br2908   1.927       .  S
C2902      C2903   1.420       .  A
C2902     Br2907   1.932       .  S
C2903      C2904   1.419       .  A
C2904     Br2905   1.928       .  S
C2909      C2910   1.409       .  A
C2909      C2914   1.412       .  A
C2909     Br2916   1.935       .  S
C2910      C2911   1.408       .  A
C2911      C2912   1.407       .  A
C2911     Br2918   1.933       .  S
C2912      C2913   1.420       .  A
C2912     Br2917   1.928       .  S
C2913      C2914   1.427       .  A
C2914     Br2915   1.936       .  S
C2919      C2920   1.410       .  A
C2919      C2924   1.411       .  A
C2919     Br2926   1.925       .  S
C2920      C2921   1.412       .  A
C2921      C2922   1.406       .  A
C2921     Br2928   1.933       .  S
C2922      C2923   1.413       .  A
C2922     Br2927   1.936       .  S
C2923      C2924   1.413       .  A
C2924     Br2925   1.929       .  S
C2929      C2930   1.413       .  A
C2929      C2934   1.414       .  A
C2929     Br2936   1.924       .  S
C2930      C2931   1.414       .  A
C2931      C2932   1.408       .  A
C2931     Br2938   1.934       .  S
C2932      C2933   1.413       .  A
C2932     Br2937   1.932       .  S
C2933      C2934   1.409       .  A
C2934     Br2935   1.926       .  S
C2939      C2940   1.427       .  A
C2939      C2944   1.411       .  A
C2939     Br2946   1.935       .  S
C2940      C2941   1.431       .  A
C2941      C2942   1.415       .  A
C2941     Br2948   1.929       .  S
C2942      C2943   1.403       .  A
C2942     Br2947   1.929       .  S
C2943      C2944   1.407       .  A
C2944     Br2945   1.933       .  S
C2949      C2950   1.408       .  A
C2949      C2954   1.398       .  A
C2949     Br2956   1.932       .  S
C2950      C2951   1.410       .  A
C2951      C2952   1.421       .  A
C2951     Br2958   1.926       .  S
C2952      C2953   1.422       .  A
C2952     Br2957   1.923       .  S
C2953      C2954   1.410       .  A
C2954     Br2955   1.919       .  S
C2959      C2960   1.427       .  A
C2959      C2964   1.418       .  A
C2959     Br2966   1.927       .  S
C2960      C2961   1.422       .  A
C2961      C2962   1.409       .  A
C2961     Br2968   1.930       .  S
C2962      C2963   1.404       .  A
C2962     Br2967   1.931       .  S
C2963      C2964   1.410       .  A
C2964     Br2965   1.936       .  S
C2969      C2970   1.409       .  A
C2969      C2974   1.409       .  A
C2969     Br2976   1.934       .  S
C2970      C2971   1.402       .  A
C2971      C2972   1.404       .  A
C2971     Br2978   1.932       .  S
C2972      C2973   1.420       .  A
C2972     Br2977   1.924       .  S
C2973      C2974   1.424       .  A
C2974     Br2975   1.937       .  S
C2979      C2980   1.418       .  A
C2979      C2984   1.414       .  A
C2979     Br2986   1.937       .  S
C2980      C2981   1.416       .  A
C2981      C2982   1.398       .  A
C2981     Br2988   1.938       .  S
C2982      C2983   1.408       .  A
C2982     Br2987   1.922       .  S
C2983      C2984   1.425       .  A
C2984     Br2985   1.939       .  S
C2989      C2990   1.417       .  A
C2989      C2994   1.409       .  A
C2989     Br2996   1.924       .  S
C2990      C2991   1.417       .  A
C2991      C2992   1.405       .  A
C2991     Br2998   1.926       .  S
C2992      C2993   1.411       .  A
C2992     Br2997   1.940       .  S
C2993      C2994   1.409       .  A
C2994     Br2995   1.935       .  S
C2999      C3000   1.434       .  A
C2999      C3004   1.415       .  A
C2999     Br3006   1.933       .  S
C3000      C3001   1.434       .  A
C3001      C3002   1.406       .  A
C3001     Br3008   1.937       .  S
C3002      C3003   1.396       .  A
C3002     Br3007   1.935       .  S
C3003      C3004   1.406       .  A
C3004     Br3005   1.937       .  S
C3009      C3010   1.418       .  A
C3009      C3014   1.413       .  A
C3009     Br3016   1.927       .  S
C3010      C3011   1.415       .  A
C3011      C3012   1.416       .  A
C3011     Br3018   1.919       .  S
C3012      C3013   1.414       .  A
C3012     Br3017   1.924       .  S
C3013      C3014   1.414       .  A
C3014     Br3015   1.933       .  S
C3019      C3020   1.426       .  A
C3019      C3024   1.411       .  A
C3019     Br3026   1.938       .  S
C3020      C3021   1.419       .  A
C3021      C3022   1.417       .  A
C3021     Br3028   1.920       .  S
C3022      C3023   1.420       .  A
C3022     Br3027   1.939       .  S
C3023      C3024   1.422       .  A
C3024     Br3025   1.947       .  S
C3029      C3030   1.418       .  A
C3029      C3034   1.410       .  A
C3029     Br3036   1.938       .  S
C3030      C3031   1.410       .  A
C3031      C3032   1.415       .  A
C3031     Br3038   1.926       .  S
C3032      C3033   1.419       .  A
C3032     Br3037   1.933       .  S
C3033      C3034   1.415       .  A
C3034     Br3035   1.934       .  S
C3039      C3040   1.425       .  A
C3039      C3044   1.410       .  A
C3039     Br3046   1.943       .  S
C3040      C3041   1.423       .  A
C3041      C3042   1.421       .  A
C3041     Br3048   1.937       .  S
C3042      C3043   1.418       .  A
C3042     Br3047   1.926       .  S
C3043      C3044   1.414       .  A
C3044     Br3045   1.929       .  S
C3049      C3050   1.420       .  A
C3049      C3054   1.406       .  A
C3049     Br3056   1.931       .  S
C3050      C3051   1.427       .  A
C3051      C3052   1.415       .  A
C3051     Br3058   1.934       .  S
C3052      C3053   1.404       .  A
C3052     Br3057   1.929       .  S
C3053      C3054   1.411       .  A
C3054     Br3055   1.935       .  S
C3059      C3060   1.407       .  A
C3059      C3064   1.412       .  A
C3059     Br3066   1.922       .  S
C3060      C3061   1.410       .  A
C3061      C3062   1.420       .  A
C3061     Br3068   1.921       .  S
C3062      C3063   1.424       .  A
C3062     Br3067   1.933       .  S
C3063      C3064   1.427       .  A
C3064     Br3065   1.940       .  S
C3069      C3070   1.420       .  A
C3069      C3074   1.411       .  A
C3069     Br3076   1.921       .  S
C3070      C3071   1.424       .  A
C3071      C3072   1.413       .  A
C3071     Br3078   1.939       .  S
C3072      C3073   1.413       .  A
C3072     Br3077   1.936       .  S
C3073      C3074   1.408       .  A
C3074     Br3075   1.935       .  S
C3079      C3080   1.435       .  A
C3079      C3084   1.418       .  A
C3079     Br3086   1.933       .  S
C3080      C3081   1.433       .  A
C3081      C3082   1.413       .  A
C3081     Br3088   1.934       .  S
C3082      C3083   1.401       .  A
C3082     Br3087   1.934       .  S
C3083      C3084   1.406       .  A
C3084     Br3085   1.936       .  S
C3089      C3090   1.408       .  A
C3089      C3094   1.403       .  A
C3089     Br3096   1.934       .  S
C3090      C3091   1.415       .  A
C3091      C3092   1.418       .  A
C3091     Br3098   1.925       .  S
C3092      C3093   1.424       .  A
C3092     Br3097   1.933       .  S
C3093      C3094   1.423       .  A
C3094     Br3095   1.928       .  S
C3099      C3100   1.415       .  A
C3099      C3104   1.415       .  A
C3099     Br3106   1.928       .  S
C3100      C3101   1.415       .  A
C3101      C3102   1.415       .  A
C3101     Br3108   1.936       .  S
C3102      C3103   1.417       .  A
C3102     Br3107   1.921       .  S
C3103      C3104   1.418       .  A
C3104     Br3105   1.919       .  S
C3109      C3110   1.410       .  A
C3109      C3114   1.411       .  A
C3109     Br3116   1.923       .  S
C3110      C3111   1.412       .  A
C3111      C3112   1.406       .  A
C3111     Br3118   1.934       .  S
C3112      C3113   1.417       .  A
C3112     Br3117   1.937       .  S
C3113      C3114   1.415       .  A
C3114     Br3115   1.933       .  S
C3119      C3120   1.418       .  A
C3119      C3124   1.407       .  A
C3119     Br3126   1.940       .  S
C3120      C3121   1.412       .  A
C3121      C3122   1.413       .  A
C3121     Br3128   1.926       .  S
C3122      C3123   1.414       .  A
C3122     Br3127   1.931       .  S
C3123      C3124   1.415       .  A
C3124     Br3125   1.937       .  S
C3129      C3130   1.416       .  A
C3129      C3134   1.417       .  A
C3129     Br3136   1.922       .  S
C3130      C3131   1.409       .  A
C3131      C3132   1.404       .  A
C3131     Br3138   1.925       .  S
C3132      C3133   1.409       .  A
C3132     Br3137   1.913       .  S
C3133      C3134   1.409       .  A
C3134     Br3135   1.916       .  S
C3139      C3140   1.421       .  A
C3139      C3144   1.413       .  A
C3139     Br3146   1.933       .  S
C3140      C3141   1.427       .  A
C3141      C3142   1.413       .  A
C3141     Br3148   1.932       .  S
C3142      C3143   1.419       .  A
C3142     Br3147   1.942       .  S
C3143      C3144   1.418       .  A
C3144     Br3145   1.933       .  S
C3149      C3150   1.422       .  A
C3149      C3154   1.417       .  A
C3149     Br3156   1.927       .  S
C3150      C3151   1.416       .  A
C3151      C3152   1.409       .  A
C3151     Br3158   1.939       .  S
C3152      C3153   1.417       .  A
C3152     Br3157   1.929       .  S
C3153      C3154   1.414       .  A
C3154     Br3155   1.929       .  S
C3159      C3160   1.409       .  A
C3159      C3164   1.413       .  A
C3159     Br3166   1.927       .  S
C3160      C3161   1.414       .  A
C3161      C3162   1.409       .  A
C3161     Br3168   1.941       .  S
C3162      C3163   1.420       .  A
C3162     Br3167   1.936       .  S
C3163      C3164   1.423       .  A
C3164     Br3165   1.936       .  S
