geometry optimzed in LAMMPS
_audit_creation_date              2020-12-01 
_audit_creation_method            'lammps2cif' 
_symmetry_space_group_name_H-M    'P1' 
_symmetry_Int_Tables_number       1 
_symmetry_cell_setting            triclinic 
loop_ 
_symmetry_equiv_pos_as_xyz 
  x,y,z 
_cell_length_a                    56.60328527 
_cell_length_b                    56.774260000573626 
_cell_length_c                    56.86355973664924 
_cell_angle_alpha                 90.41530783352627 
_cell_angle_beta                  89.79304853226381 
_cell_angle_gamma                 89.7585200347922 
loop_ 
_atom_site_label 
_atom_site_type_symbol 
_atom_site_fract_x 
_atom_site_fract_y 
_atom_site_fract_z 
_atom_site_charge 
C1          C  0.71554765  0.02582851  0.01129538     0.86600
C2          C  0.74276135  0.02799962  0.01384860    -0.53600
C3          C  0.75505579  0.01333306  0.99913675     0.09500
C4          C  0.73979531  0.99765045  0.98376651     0.20500
C5          C  0.71119774  0.02947546  0.98452958    -0.54300
C6          C  0.72401773  0.01442859  0.97037381     0.09600
C7          C  0.71090100  0.99908853  0.01543349    -0.53900
C8          C  0.72376990  0.98445838  0.00075610     0.10200
H9          H  0.75173630  0.03996561  0.02569059     0.14700
H10         H  0.75051121  0.98594458  0.97209771     0.00500
H11         H  0.69954123  0.04292687  0.97755057     0.15000
H12         H  0.69884162  0.99251199  0.02870943     0.14800
C13         C  0.72405188  0.72423786  0.70515325     0.86600
C14         C  0.71921317  0.72078356  0.73187546    -0.53600
C15         C  0.73257592  0.73510748  0.74606459     0.09500
C16         C  0.74950368  0.75079749  0.73261012     0.20500
C17         C  0.72083744  0.75110814  0.70109762    -0.54300
C18         C  0.73435692  0.76476556  0.71561462     0.09600
C19         C  0.75113983  0.72033432  0.70243989    -0.53900
C20         C  0.76422486  0.73430534  0.71725300     0.10200
H21         H  0.70640016  0.70842426  0.73876767     0.14700
H22         H  0.76069863  0.76203770  0.74409033     0.00500
H23         H  0.70931371  0.75858770  0.68786006     0.15000
H24         H  0.75905697  0.70795970  0.69006228     0.14800
C25         C  0.02450221  0.03951415  0.70811047     0.86600
C26         C  0.02946435  0.01268945  0.70516834    -0.53600
C27         C  0.01613211  0.99906110  0.71990288     0.09500
C28         C  0.99916900  0.01311024  0.73539040     0.20500
C29         C  0.99734869  0.04201147  0.70437719    -0.54300
C30         C  0.98418374  0.02802401  0.71898286     0.09600
C31         C  0.02822508  0.04427068  0.73481461    -0.53900
C32         C  0.01461452  0.03028802  0.74889284     0.10200
H33         H  0.04269174  0.00535188  0.69331721     0.14700
H34         H  0.98852243  0.00171277  0.74708071     0.00500
H35         H  0.98948760  0.05383212  0.69166450     0.15000
H36         H  0.04041009  0.05727259  0.74175541     0.14800
C37         C  0.21456405  0.23740321  0.71214814     0.86600
C38         C  0.24107636  0.23100636  0.70892438    -0.53600
C39         C  0.25591015  0.24455470  0.72226166     0.09500
C40         C  0.24334973  0.26306447  0.73717156     0.20500
C41         C  0.21023574  0.23634244  0.73933533    -0.54300
C42         C  0.22567128  0.24980757  0.75221105     0.09600
C43         C  0.21344640  0.26416501  0.70658985    -0.53900
C44         C  0.22857425  0.27743033  0.72004327     0.10200
H45         H  0.24743166  0.21726626  0.69709800     0.14700
H46         H  0.25581687  0.27406323  0.74752120     0.00500
H47         H  0.19652635  0.22604593  0.74767397     0.15000
H48         H  0.20164661  0.27178818  0.69367715     0.14800
Zr49       Zr  0.46595740  0.29278218  0.76573684     2.17500
O50         O  0.44384171  0.31934270  0.79162442    -0.51200
O51         O  0.47673598  0.33295242  0.75347438    -0.74400
O52         O  0.48186935  0.29264179  0.80653754    -0.81200
O53         O  0.42122465  0.29326526  0.72128495    -0.82900
O54         O  0.51695100  0.27286831  0.80580107    -0.78600
O55         O  0.42243206  0.29069342  0.76030670    -0.90200
O56         O  0.50599152  0.33032823  0.72603532    -0.76200
O57         O  0.50693698  0.28995014  0.75504459    -0.85700
O58         O  0.46861937  0.29408181  0.72349919    -0.85300
O59         O  0.47971217  0.25516339  0.78008687    -0.72100
O60         O  0.44373519  0.25968361  0.75110917    -0.97000
Zr61       Zr  0.50062628  0.22018858  0.71244230     2.26400
Zr62       Zr  0.52040840  0.25254266  0.76862257     2.06300
Zr63       Zr  0.44639245  0.26105848  0.70930054     2.10000
Zr64       Zr  0.50923999  0.29032701  0.71315225     1.78800
O65         O  0.40787885  0.24226347  0.71161456    -0.93000
O66         O  0.54953643  0.30364858  0.72042406    -0.40800
O67         O  0.48707201  0.25786319  0.69839845    -0.77500
O68         O  0.52394385  0.25350741  0.72660562    -0.96200
O69         O  0.49842615  0.21929798  0.75454505    -0.89500
O70         O  0.45976158  0.22364005  0.72320357    -0.92300
C71         C  0.49225732  0.34202894  0.73961617     1.01400
C72         C  0.41068430  0.29198493  0.74096340     1.14400
C73         C  0.50065404  0.28440405  0.81652286     1.05200
O74         O  0.55862900  0.27124330  0.76280426    -0.94500
O75         O  0.53918738  0.21530926  0.75989132    -0.90200
O76         O  0.54289826  0.21321153  0.72105045    -0.83400
C77         C  0.55215505  0.21345775  0.74168434     1.11800
O78         O  0.42890571  0.23042917  0.79584225    -0.96400
Zr79       Zr  0.45790433  0.22292855  0.76496773     1.88900
O80         O  0.48604846  0.18033411  0.72200147    -0.73100
O81         O  0.53817894  0.23750102  0.80452144    -0.52400
O82         O  0.47084809  0.20665381  0.80229109    -0.97000
O83         O  0.41939690  0.20523191  0.75778699    -0.54200
O84         O  0.46480157  0.18250277  0.75592854    -0.73600
C85         C  0.47428585  0.17102277  0.73902978     0.98700
O86         O  0.51575302  0.19249001  0.68299943    -0.62400
O87         O  0.43430765  0.28130956  0.67358990    -0.57200
O88         O  0.48770733  0.22971427  0.67186926    -0.93900
O89         O  0.44850656  0.23531143  0.67562022    -0.92300
O90         O  0.49754850  0.31252169  0.67855239    -0.92700
O91         O  0.53290214  0.28355195  0.67781389    -0.91500
C92         C  0.46702056  0.23323121  0.66299134     1.17600
H93         H  0.46228117  0.30861990  0.71737882     0.33500
H94         H  0.54024582  0.25338544  0.72160436     0.44400
H95         H  0.45056121  0.21111956  0.71631099     0.37900
H96         H  0.47762121  0.25297850  0.79674222     0.34400
H97         H  0.55984956  0.28982292  0.71742737     0.26200
H98         H  0.53077225  0.22193254  0.80694636     0.32100
H99         H  0.48726425  0.20128435  0.79934868     0.38000
H100        H  0.48044958  0.30948004  0.67675568     0.32500
H101        H  0.41691317  0.27958697  0.67308136     0.31400
H102        H  0.40019000  0.24581183  0.69643406     0.33000
H103        H  0.42158557  0.19463560  0.74404197     0.32000
H104        H  0.52631537  0.26905811  0.67065828     0.36000
H105        H  0.52780319  0.20138006  0.67410179     0.28700
H106        H  0.45571252  0.33013681  0.79846801     0.33000
H107        H  0.43192965  0.24685636  0.80093248     0.35800
H108        H  0.43685929  0.29824952  0.67688724     0.28400
H109        H  0.52488419  0.18064585  0.69192125     0.41300
H110        H  0.56346333  0.27648061  0.77871109     0.31400
H111        H  0.55311838  0.31454328  0.70737522     0.39000
H112        H  0.40946584  0.21827343  0.75186132     0.30800
H113        H  0.55483138  0.23394874  0.80043245     0.30900
H114        H  0.43858184  0.30946939  0.80493141     0.31200
C115        C  0.52000819  0.54213321  0.70301062     0.86600
C116        C  0.52605610  0.54338509  0.72960887    -0.53600
C117        C  0.51199371  0.52931907  0.74315024     0.09500
C118        C  0.49318589  0.51615651  0.72927464     0.20500
C119        C  0.52123299  0.51543696  0.69700854    -0.54300
C120        C  0.50677121  0.50207031  0.71082310     0.09600
C121        C  0.49326137  0.54843050  0.70168282    -0.53900
C122        C  0.47934087  0.53462639  0.71576179     0.10200
H123        H  0.54069438  0.55338233  0.73677871     0.14700
H124        H  0.48181224  0.50495973  0.74048234     0.00500
H125        H  0.53233159  0.50796593  0.68322208     0.15000
H126        H  0.48618286  0.56226811  0.69064800     0.14800
C127        C  0.52092566  0.22999962  0.01368816     0.86600
C128        C  0.52504984  0.25606357  0.02063263    -0.53600
C129        C  0.51082657  0.27147220  0.00887484     0.09500
C130        C  0.49432445  0.25987026  0.99118634     0.20500
C131        C  0.49381299  0.22630295  0.01719682    -0.54300
C132        C  0.48006583  0.24205886  0.00496418     0.09600
C133        C  0.52446078  0.22975649  0.98645866    -0.53900
C134        C  0.51028533  0.24554224  0.97495001     0.10200
H135        H  0.53809894  0.26174519  0.03339777     0.14700
H136        H  0.48323952  0.27286010  0.98166344     0.00500
H137        H  0.48637987  0.21235771  0.02783546     0.15000
H138        H  0.53686991  0.21849877  0.97710776     0.14800
Zr139      Zr  0.76912588  0.77415784  0.96015180     2.17500
O140        O  0.79325551  0.79513217  0.93160818    -0.51200
O141        O  0.81079884  0.76457080  0.97039400    -0.74400
O142        O  0.77031226  0.81656842  0.97066862    -0.81200
O143        O  0.75297210  0.72380106  0.91724856    -0.82900
O144        O  0.76661995  0.81417564  0.00974022    -0.78600
O145        O  0.76563613  0.76173451  0.91819627    -0.90200
O146        O  0.81062889  0.73760997  0.99970548    -0.76200
O147        O  0.76958832  0.77063154  0.00206963    -0.85700
O148        O  0.77012730  0.73289626  0.96882935    -0.85300
O149        O  0.73278518  0.79272563  0.97446110    -0.72100
O150        O  0.73333353  0.75738672  0.94461980    -0.84200
Zr151      Zr  0.69925797  0.73070060  0.01060773     2.26400
Zr152      Zr  0.73361919  0.78826777  0.01640500     2.06300
Zr153      Zr  0.73412271  0.71655729  0.95422979     2.10000
Zr154      Zr  0.77049304  0.72973301  0.01053696     1.78800
O155        O  0.71501032  0.70047603  0.91930678    -0.93000
O156        O  0.78847872  0.74611172  0.04589956    -0.40800
O157        O  0.73501573  0.71240800  0.99587517    -0.77500
O158        O  0.73555562  0.74732050  0.02600890    -0.96200
O159        O  0.69789311  0.77182144  0.00133105    -0.89500
O160        O  0.69820731  0.73408135  0.96855949    -0.92300
C161        C  0.82133180  0.75082858  0.98509500     1.01400
C162        C  0.76053447  0.74237055  0.90720874     1.14400
C163        C  0.76844128  0.82634891  0.99110666     1.05200
O164        O  0.74915731  0.80563234  0.05240602    -0.94500
O165        O  0.71306885  0.78126201  0.05312197    -0.90200
O166        O  0.69836630  0.74400950  0.05247014    -0.83400
C167        C  0.70399803  0.76332547  0.06326575     1.11800
O168        O  0.70000371  0.80356454  0.92787173    -0.96400
Zr169      Zr  0.69792914  0.77491070  0.95948102     1.88900
O170        O  0.65773050  0.74108690  0.00030228    -0.73100
O171        O  0.70960210  0.82396975  0.01435892    -0.52400
O172        O  0.67903159  0.81270421  0.96793513    -0.97000
O173        O  0.68215528  0.76023835  0.92235359    -0.54200
O174        O  0.65793794  0.76681293  0.96986332    -0.73600
C175        C  0.64727399  0.75436002  0.98508712     0.98700
O176        O  0.67519607  0.70415033  0.03411422    -0.62400
O177        O  0.76098541  0.68294777  0.95380344    -0.57200
O178        O  0.70361018  0.68772618  0.00247663    -0.93900
O179        O  0.70673670  0.68561708  0.96308356    -0.92300
O180        O  0.78875640  0.69142240  0.00340421    -0.92700
O181        O  0.76715481  0.70292631  0.04364865    -0.91500
C182        C  0.70500708  0.67582056  0.98306270     1.17600
H183        H  0.78358254  0.72522963  0.96165810     0.33500
H184        H  0.73804823  0.74505221  0.04258049     0.44400
H185        H  0.68458062  0.72627306  0.96201193     0.37900
H186        H  0.73084719  0.80898607  0.97004007     0.34400
H187        H  0.80287232  0.73648537  0.04837055     0.26200
H188        H  0.71428268  0.83326874  0.02837518     0.32100
H189        H  0.66413948  0.81252775  0.95883624     0.38000
H190        H  0.77542531  0.68021017  0.00274110     0.32500
H191        H  0.75463933  0.67214893  0.96583401     0.31400
H192        H  0.69799069  0.70407713  0.92131196     0.33000
H193        H  0.66676576  0.75305116  0.92634776     0.32000
H194        H  0.75020495  0.70328110  0.04801068     0.36000
H195        H  0.68565032  0.69889923  0.04700829     0.28700
H196        H  0.80566441  0.80305930  0.94095466     0.33000
H197        H  0.71675941  0.80331121  0.92281726     0.35800
H198        H  0.75773810  0.67488604  0.93866387     0.28400
H199        H  0.66317613  0.71428089  0.04188450     0.41300
H200        H  0.76300161  0.79571583  0.05634185     0.31400
H201        H  0.79451615  0.76172839  0.04117469     0.39000
H202        H  0.69245469  0.74673540  0.91808616     0.30800
H203        H  0.71596498  0.83299409  0.00094926     0.30900
H204        H  0.78307179  0.80808330  0.92586783     0.31200
C205        C  0.84748914  0.37546865  0.86743359    -0.02400
C206        C  0.94067372  0.46574098  0.76083510     0.86600
C207        C  0.96786919  0.46316596  0.76333456    -0.53600
C208        C  0.98033268  0.47581380  0.74700030     0.09500
C209        C  0.96470878  0.48961430  0.73014148     0.20500
C210        C  0.93619610  0.49265435  0.76195000    -0.54300
C211        C  0.94869930  0.50502689  0.74553851     0.09600
C212        C  0.93559719  0.45882642  0.73489118    -0.53900
C213        C  0.94846168  0.47150061  0.71905801     0.10200
H214        H  0.97631165  0.45234084  0.77654380     0.14700
H215        H  0.97494776  0.49956057  0.71688880     0.00500
H216        H  0.92408137  0.50101292  0.77431846     0.15000
H217        H  0.92304077  0.44539328  0.72965074     0.14800
C218        C  0.75142856  0.47445286  0.96679666     0.86600
C219        C  0.75484693  0.50110753  0.96173816    -0.53600
C220        C  0.74187026  0.51561815  0.97624514     0.09500
C221        C  0.72676153  0.50255506  0.99396861     0.20500
C222        C  0.75669704  0.47179890  0.99352052    -0.54300
C223        C  0.74363137  0.48676901  0.00759297     0.09600
C224        C  0.72418350  0.47083915  0.96530988    -0.53900
C225        C  0.71159009  0.48583390  0.97959727     0.10200
H226        H  0.76646991  0.50775578  0.94810928     0.14700
H227        H  0.71592829  0.51439780  0.00537949     0.00500
H228        H  0.76924503  0.45918089  0.00052119     0.15000
H229        H  0.71551268  0.45791113  0.95426196     0.14800
C230        C  0.22270229  0.04583378  0.51436026     0.86600
C231        C  0.24978434  0.04956355  0.51676267    -0.53600
C232        C  0.26275337  0.03595885  0.50157276     0.09500
C233        C  0.24817378  0.01977355  0.48611219     0.20500
C234        C  0.21758276  0.04979857  0.48785462    -0.54300
C235        C  0.23090222  0.03571198  0.47325758     0.09600
C236        C  0.21940571  0.01898604  0.51780283    -0.53900
C237        C  0.23322050  0.00550398  0.50311737     0.10200
H238        H  0.25810547  0.06144259  0.52917276     0.14700
H239        H  0.25917039  0.00885946  0.47399066     0.00500
H240        H  0.20428857  0.06195598  0.48140846     0.15000
H241        H  0.20774172  0.01145555  0.53092773     0.14800
C242        C  0.12050408  0.13866742  0.61196621    -0.02400
C243        C  0.02618847  0.72322664  0.01347076     0.86600
C244        C  0.99912192  0.71777617  0.01309101    -0.53600
C245        C  0.98592536  0.73421456  0.00119185     0.09500
C246        C  0.00066559  0.75419972  0.99136708     0.20500
C247        C  0.03285775  0.72611389  0.98707781    -0.54300
C248        C  0.01930181  0.74259102  0.97564859     0.09600
C249        C  0.02782725  0.74846120  0.02375967    -0.53900
C250        C  0.01416462  0.76439672  0.01215058     0.10200
H251        H  0.99122047  0.70239158  0.02102568     0.14700
H252        H  0.98993220  0.76770791  0.98220888     0.00500
H253        H  0.04692444  0.71621904  0.97848702     0.15000
H254        H  0.03858900  0.75316966  0.03883676     0.14800
C255        C  0.22983610  0.54492159  0.01334703     0.86600
C256        C  0.22468303  0.54773440  0.98677238    -0.53600
C257        C  0.23880645  0.53390027  0.97270260     0.09500
C258        C  0.25659165  0.51902702  0.98622535     0.20500
C259        C  0.22780695  0.51802092  0.01769806    -0.54300
C260        C  0.24212085  0.50458778  0.00343949     0.09600
C261        C  0.25668061  0.55026575  0.01561118    -0.53900
C262        C  0.27042372  0.53638501  0.00119101     0.10200
H263        H  0.21104208  0.55925692  0.97990641     0.14700
H264        H  0.26810098  0.50820007  0.97454387     0.00500
H265        H  0.21611448  0.51041505  0.03074974     0.15000
H266        H  0.26401760  0.56325348  0.02759520     0.14800
C267        C  0.22020177  0.73294049  0.21637479     0.86600
C268        C  0.21857604  0.75951862  0.21014089    -0.53600
C269        C  0.23217535  0.77355752  0.22424304     0.09500
C270        C  0.24628660  0.76012899  0.24256157     0.20500
C271        C  0.24706409  0.72721401  0.21519866    -0.54300
C272        C  0.26047996  0.74181972  0.22896217     0.09600
C273        C  0.21403948  0.73213141  0.24308863    -0.53900
C274        C  0.22814357  0.74640066  0.25665669     0.10200
H275        H  0.20740306  0.76657346  0.19638564     0.14700
H276        H  0.25759532  0.77170857  0.25360796     0.00500
H277        H  0.25463989  0.71326572  0.20437109     0.15000
H278        H  0.20024205  0.72116280  0.25043750     0.14800
C279        C  0.12800605  0.63511952  0.11400883    -0.02400
C280        C  0.51612455  0.73302851  0.52028093     0.86600
C281        C  0.48921577  0.72820088  0.52364777    -0.53600
C282        C  0.47515483  0.74231748  0.50997660     0.09500
C283        C  0.48892177  0.75967639  0.49516019     0.20500
C284        C  0.52040304  0.73072870  0.49342703    -0.54300
C285        C  0.50607687  0.74499314  0.48042757     0.09600
C286        C  0.51888268  0.75961920  0.52555531    -0.53900
C287        C  0.50422359  0.77333151  0.51238363     0.10200
H288        H  0.48213516  0.71490154  0.53529779     0.14700
H289        H  0.47746479  0.77134751  0.48449291     0.00500
H290        H  0.53375491  0.71929612  0.48562977     0.15000
H291        H  0.53114388  0.76680943  0.53834739     0.14800
Zr292      Zr  0.26159150  0.78900626  0.46780431     2.17500
O293        O  0.29306456  0.81041807  0.44795042    -0.51200
O294        O  0.25427812  0.83084877  0.47713887    -0.74400
O295        O  0.25308846  0.79204753  0.42528327    -0.81200
O296        O  0.30216752  0.76311233  0.51563581    -0.82900
O297        O  0.21346252  0.79113089  0.42504266    -0.78600
O298        O  0.30309761  0.78143326  0.48018624    -0.90200
O299        O  0.21922552  0.83294220  0.49654209    -0.76200
O300        O  0.21955093  0.79372021  0.47028438    -0.85700
O301        O  0.25137905  0.79122822  0.50885073    -0.85300
O302        O  0.24496467  0.75471214  0.44811640    -0.72100
O303        O  0.27276108  0.75229231  0.48527812    -0.84200
Zr304      Zr  0.20307196  0.72479266  0.50870132     2.26400
Zr305      Zr  0.20303850  0.75974687  0.45146233     2.06300
Zr306      Zr  0.26192093  0.75421105  0.52567775     2.10000
Zr307      Zr  0.20948426  0.79503311  0.51095816     1.78800
O308        O  0.29272308  0.73735393  0.55026879    -0.93000
O309        O  0.17181055  0.81338058  0.50127645    -0.40800
O310        O  0.22017697  0.75854778  0.52816922    -0.77500
O311        O  0.19155586  0.76227162  0.49203481    -0.96200
O312        O  0.21417028  0.72279419  0.46805501    -0.89500
O313        O  0.24530252  0.72007945  0.50690640    -0.92300
C314        C  0.23687641  0.84233569  0.48635845     1.01400
C315        C  0.31325135  0.77212394  0.49827929     1.14400
C316        C  0.23321874  0.79215921  0.41430270     1.05200
O317        O  0.16895461  0.77810339  0.43297193    -0.94500
O318        O  0.16401794  0.74339640  0.45569765    -0.90200
O319        O  0.16236172  0.72703523  0.49210411    -0.83400
C320        C  0.15264791  0.73437284  0.47286953     1.11800
O321        O  0.29206987  0.72186021  0.44282179    -0.96400
Zr322      Zr  0.25616042  0.71888637  0.46647660     1.88900
O323        O  0.21116232  0.68256518  0.50038899    -0.73100
O324        O  0.20629525  0.73516777  0.41634201    -0.52400
O325        O  0.24725628  0.70214855  0.42794326    -0.97000
O326        O  0.29057025  0.69711571  0.48040717    -0.54200
O327        O  0.24159625  0.68045012  0.47423284    -0.73600
C328        C  0.22578065  0.67106020  0.48706637     0.98700
O329        O  0.17479437  0.70464234  0.53389552    -0.62400
O330        O  0.26062642  0.78360508  0.55710746    -0.57200
O331        O  0.20940887  0.72881438  0.55175694    -0.93900
O332        O  0.24864929  0.72504463  0.55312483    -0.92300
O333        O  0.22216799  0.81763350  0.54521875    -0.92700
O334        O  0.18044036  0.79288818  0.54262726    -0.91500
C335        C  0.22884338  0.72746421  0.56344960     1.17600
H336        H  0.25936335  0.80417812  0.51648829     0.33500
H337        H  0.17503798  0.76601456  0.49385359     0.44400
H338        H  0.25041909  0.70573294  0.51447404     0.37900
H339        H  0.24978373  0.75247974  0.43196506     0.34400
H340        H  0.17251448  0.82929501  0.50848229     0.26200
H341        H  0.19514553  0.72208022  0.41910286     0.32100
H342        H  0.25419902  0.68611264  0.42814953     0.38000
H343        H  0.21175408  0.83169796  0.54548969     0.32500
H344        H  0.24956407  0.77711304  0.56890051     0.31400
H345        H  0.29791046  0.72294336  0.54175185     0.33000
H346        H  0.28426743  0.68433004  0.49033162     0.32000
H347        H  0.18713377  0.78155032  0.55398674     0.36000
H348        H  0.16260329  0.71664338  0.53776810     0.28700
H349        H  0.28529503  0.82435570  0.44096157     0.33000
H350        H  0.29276002  0.70741041  0.43300006     0.35800
H351        H  0.27632553  0.78261877  0.56465711     0.28400
H352        H  0.16669310  0.69315572  0.52356212     0.41300
H353        H  0.16628209  0.79281323  0.44207801     0.31400
H354        H  0.17269740  0.81618714  0.48413408     0.39000
H355        H  0.29830916  0.70797875  0.49166807     0.30800
H356        H  0.19878767  0.74460296  0.40381911     0.30900
H357        H  0.29765013  0.80042847  0.43431682     0.31200
Zr358      Zr  0.26570628  0.48855402  0.75736581     2.17500
O359        O  0.29240234  0.47296294  0.78704837    -0.51200
O360        O  0.30619531  0.50049214  0.74554633    -0.74400
O361        O  0.27143851  0.44603037  0.74967666    -0.81200
O362        O  0.23830926  0.53561911  0.79882063    -0.82900
O363        O  0.26826250  0.44697882  0.71065451    -0.78600
O364        O  0.26074416  0.50228924  0.79873849    -0.90200
O365        O  0.30419824  0.52376132  0.71332126    -0.76200
O366        O  0.26610433  0.48936941  0.71531480    -0.85700
O367        O  0.26313412  0.52903713  0.74590428    -0.85300
O368        O  0.23125766  0.46587118  0.74503786    -0.72100
O369        O  0.22826313  0.50325514  0.77131526    -0.84200
Zr370      Zr  0.19272762  0.52252517  0.70432656     2.26400
Zr371      Zr  0.23197378  0.46769289  0.70294011     2.06300
Zr372      Zr  0.22550593  0.54326575  0.75947852     2.10000
Zr373      Zr  0.26338306  0.52949424  0.70392953     1.78800
O374        O  0.20999921  0.56634286  0.79241901    -0.93000
O375        O  0.28120310  0.51389261  0.66785879    -0.40800
O376        O  0.22640396  0.54480194  0.71754403    -0.77500
O377        O  0.23034390  0.50779084  0.68978157    -0.96200
O378        O  0.19480551  0.48233644  0.71661917    -0.89500
O379        O  0.19130633  0.52181996  0.74647662    -0.92300
C380        C  0.31575061  0.51282413  0.72907280     1.01400
C381        C  0.25030536  0.51975974  0.80927384     1.14400
C382        C  0.27083384  0.43550088  0.72958383     1.05200
O383        O  0.24758716  0.44631995  0.66898218    -0.94500
O384        O  0.21023583  0.46882719  0.66670279    -0.90200
O385        O  0.19245429  0.50477724  0.66450642    -0.83400
C386        C  0.19943252  0.48500400  0.65543944     1.11800
O387        O  0.19717842  0.45906477  0.79439534    -0.96400
Zr388      Zr  0.19454218  0.48194270  0.75844976     1.88900
O389        O  0.15244072  0.50918085  0.71407755    -0.73100
O390        O  0.21129633  0.43093947  0.71033120    -0.52400
O391        O  0.18241575  0.44102320  0.75408774    -0.97000
O392        O  0.17477281  0.49774875  0.79341978    -0.54200
O393        O  0.15459391  0.48395925  0.74486250    -0.73600
C394        C  0.14317576  0.49482522  0.72893305     0.98700
O395        O  0.16720915  0.54581028  0.67891201    -0.62400
O396        O  0.25119250  0.57734673  0.75546319    -0.57200
O397        O  0.19303363  0.56597061  0.71017412    -0.93900
O398        O  0.19186633  0.56697187  0.74928862    -0.92300
O399        O  0.27732484  0.56947218  0.71101453    -0.92700
O400        O  0.25949059  0.55601489  0.67062910    -0.91500
C401        C  0.19168589  0.57753759  0.72971083     1.17600
H402        H  0.27595904  0.53812589  0.75247454     0.33500
H403        H  0.23238979  0.50879901  0.67298434     0.44400
H404        H  0.17657768  0.52830941  0.75222917     0.37900
H405        H  0.23102624  0.44979898  0.75045494     0.34400
H406        H  0.29831091  0.51720703  0.66908028     0.26200
H407        H  0.19639635  0.43239609  0.70137827     0.32100
H408        H  0.17197201  0.44075804  0.74016057     0.38000
H409        H  0.29468847  0.56871188  0.70898070     0.32500
H410        H  0.24040339  0.59072541  0.75237330     0.31400
H411        H  0.21524746  0.58268774  0.78958671     0.33000
H412        H  0.15886019  0.49056753  0.79328629     0.32000
H413        H  0.24929251  0.54762031  0.65923690     0.36000
H414        H  0.17719555  0.54993975  0.66522296     0.28700
H415        H  0.30577559  0.46596131  0.77812488     0.33000
H416        H  0.21427915  0.45848196  0.79794955     0.35800
H417        H  0.25724069  0.58032093  0.77152349     0.28400
H418        H  0.15543058  0.53461093  0.67259233     0.41300
H419        H  0.25999063  0.45669902  0.66251484     0.31400
H420        H  0.28003370  0.49657072  0.66928680     0.39000
H421        H  0.17190313  0.51464468  0.79034643     0.30800
H422        H  0.22048907  0.41885191  0.70158243     0.30900
H423        H  0.28404399  0.45931408  0.79386018     0.31200
Zr424      Zr  0.00163368  0.71521981  0.71034685     2.17500
O425        O  0.01747392  0.68782521  0.68098421    -0.51200
O426        O  0.98547074  0.67580437  0.71952596    -0.74400
O427        O  0.04387834  0.70723999  0.71764637    -0.81200
O428        O  0.95740385  0.74613072  0.66963425    -0.82900
O429        O  0.04164284  0.70919979  0.75651100    -0.78600
O430        O  0.98995881  0.72252348  0.66885587    -0.90200
O431        O  0.96456573  0.67835062  0.75359483    -0.76200
O432        O  0.00041770  0.71393590  0.75248693    -0.85700
O433        O  0.96105461  0.71953526  0.72213092    -0.85300
O434        O  0.02588634  0.74795791  0.72429905    -0.72100
O435        O  0.98866229  0.75340580  0.69769583    -0.84200
Zr436      Zr  0.97083437  0.78839303  0.76655474     2.26400
Zr437      Zr  0.02365191  0.74640703  0.76638015     2.06300
Zr438      Zr  0.94857505  0.75774967  0.70960574     2.10000
Zr439      Zr  0.96027948  0.71868929  0.76411838     1.78800
O440        O  0.92419580  0.77619926  0.67955774    -0.93000
O441        O  0.97343766  0.69950413  0.79999854    -0.40800
O442        O  0.94718410  0.75626117  0.75160607    -0.77500
O443        O  0.98348302  0.74990235  0.77966585    -0.96200
O444        O  0.01099751  0.78433425  0.75378791    -0.89500
O445        O  0.97177953  0.79020123  0.72413130    -0.92300
C446        C  0.97335453  0.66672789  0.73642592     1.01400
C447        C  0.97305086  0.73391319  0.65865800     1.14400
C448        C  0.05390858  0.70755308  0.73785686     1.05200
O449        O  0.04664961  0.72863494  0.79776954    -0.94500
O450        O  0.02146395  0.76393994  0.80475677    -0.90200
O451        O  0.98858473  0.78706043  0.80691832    -0.83400
C452        C  0.00695647  0.77703146  0.81614249     1.11800
O453        O  0.03621997  0.77884098  0.67706174    -0.96400
Zr454      Zr  0.01163358  0.78536366  0.71184891     1.88900
O455        O  0.98376051  0.82841399  0.75529477    -0.73100
O456        O  0.05947744  0.76930745  0.76058469    -0.52400
O457        O  0.05137429  0.80014873  0.71895374    -0.97000
O458        O  0.99669178  0.80425396  0.67642991    -0.54200
O459        O  0.00827403  0.82563965  0.72359672    -0.73600
C460        C  0.99734435  0.83739566  0.73945141     0.98700
O461        O  0.95107768  0.81587090  0.79336692    -0.62400
O462        O  0.91390961  0.73244220  0.71113722    -0.57200
O463        O  0.92707696  0.78781570  0.76207983    -0.93900
O464        O  0.92700509  0.79181022  0.72339459    -0.92300
O465        O  0.91988965  0.70566463  0.75725206    -0.92700
O466        O  0.93322139  0.72476266  0.79700473    -0.91500
C467        C  0.91574275  0.78985541  0.74258560     1.17600
H468        H  0.95148007  0.70733975  0.71520566     0.33500
H469        H  0.98166655  0.74743220  0.79630878     0.44400
H470        H  0.96609805  0.80515733  0.71836748     0.37900
H471        H  0.04202381  0.74765572  0.71878881     0.34400
H472        H  0.96484840  0.68435252  0.80039797     0.26200
H473        H  0.06697133  0.76998397  0.77627749     0.32100
H474        H  0.06209230  0.78669266  0.71566413     0.38000
H475        H  0.92085981  0.69460341  0.74374236     0.32500
H476        H  0.90020597  0.74324191  0.71016704     0.31400
H477        H  0.91428465  0.76345684  0.67294146     0.33000
H478        H  0.99166472  0.82025860  0.68138543     0.32000
H479        H  0.93239187  0.74208519  0.79903059     0.36000
H480        H  0.94568529  0.80615392  0.80673105     0.28700
H481        H  0.02330831  0.67413563  0.68999873     0.33000
H482        H  0.04340462  0.79429500  0.67351990     0.35800
H483        H  0.91399400  0.72396460  0.69585329     0.28400
H484        H  0.96379934  0.82583806  0.79994784     0.41300
H485        H  0.03619262  0.71636474  0.80435849     0.31400
H486        H  0.99008471  0.69503739  0.79685630     0.39000
H487        H  0.98175795  0.79596398  0.67285759     0.30800
H488        H  0.07011290  0.75923610  0.75100964     0.30900
H489        H  0.03192197  0.69540174  0.67479401     0.31200
C490        C  0.24796310  0.77161928  0.76396849     0.86600
C491        C  0.25364987  0.77757588  0.73791460    -0.53600
C492        C  0.24094440  0.76454390  0.72207402     0.09500
C493        C  0.22453937  0.74677454  0.73329886     0.20500
C494        C  0.22058757  0.77399668  0.76610768    -0.54300
C495        C  0.20857940  0.76078362  0.74986140     0.09600
C496        C  0.25222801  0.74469990  0.76577170    -0.53900
C497        C  0.23993641  0.73191388  0.74938510     0.10200
H498        H  0.26604623  0.79110390  0.73263749     0.14700
H499        H  0.21466470  0.73598322  0.72026083     0.00500
H500        H  0.21148545  0.78422740  0.77953316     0.15000
H501        H  0.26335358  0.73660323  0.77898725     0.14800
Zr502      Zr  0.46865247  0.78604707  0.26761608     2.17500
O503        O  0.44965086  0.81929508  0.28759304    -0.51200
O504        O  0.48213292  0.78122122  0.30870573    -0.74400
O505        O  0.42641083  0.77822039  0.27560714    -0.81200
O506        O  0.51401931  0.82444542  0.23464592    -0.82900
O507        O  0.42543654  0.73870686  0.27815981    -0.78600
O508        O  0.48196534  0.82662411  0.25883363    -0.90200
O509        O  0.51189887  0.75425589  0.30920580    -0.76200
O510        O  0.47368922  0.74515921  0.27603827    -0.85700
O511        O  0.50988724  0.77686597  0.26430356    -0.85300
O512        O  0.44573358  0.76520292  0.23804401    -0.72100
O513        O  0.47997420  0.79410186  0.22749601    -0.84200
Zr514      Zr  0.50311816  0.72226814  0.20355646     2.26400
Zr515      Zr  0.45119288  0.72430846  0.24719176     2.06300
Zr516      Zr  0.52102124  0.78410270  0.22447997     2.10000
Zr517      Zr  0.51451090  0.73585621  0.27170839     1.78800
O518        O  0.53960319  0.81426765  0.20050833    -0.93000
O519        O  0.50401651  0.70428136  0.29855615    -0.40800
O520        O  0.52605190  0.74321142  0.23243382    -0.77500
O521        O  0.49209092  0.71403464  0.24375347    -0.96200
O522        O  0.46195715  0.73158137  0.20724539    -0.89500
O523        O  0.49872798  0.76368552  0.19498551    -0.92300
C524        C  0.49825535  0.76911075  0.31921137     1.01400
C525        C  0.49890373  0.83599202  0.24685417     1.14400
C526        C  0.41511791  0.75870928  0.27805934     1.05200
O527        O  0.44700463  0.69429116  0.27726013    -0.94500
O528        O  0.45298790  0.68519042  0.23057399    -0.90200
O529        O  0.48725401  0.68196060  0.20961592    -0.83400
C530        C  0.46866955  0.67312876  0.21946434     1.11800
O531        O  0.43356374  0.80767835  0.19476017    -0.96400
Zr532      Zr  0.45780118  0.77241444  0.19888047     1.88900
O533        O  0.49151304  0.73056813  0.16291567    -0.73100
O534        O  0.41196570  0.71737998  0.23108757    -0.52400
O535        O  0.41535851  0.76860158  0.19297280    -0.97000
O536        O  0.46964806  0.79800003  0.16663320    -0.54200
O537        O  0.45431377  0.74274791  0.16881132    -0.73600
C538        C  0.47131799  0.73721732  0.15519390     0.98700
O539        O  0.52250228  0.69101004  0.18098111    -0.62400
O540        O  0.55632363  0.78738002  0.24865826    -0.57200
O541        O  0.54629689  0.72941360  0.20306219    -0.93900
O542        O  0.54558389  0.76740874  0.19371951    -0.92300
O543        O  0.55517737  0.74713763  0.27994635    -0.92700
O544        O  0.54215513  0.70291809  0.27067693    -0.91500
C545        C  0.55710019  0.74866172  0.19801821     1.17600
H546        H  0.51901197  0.78643288  0.27509576     0.33500
H547        H  0.49472926  0.69779454  0.24793378     0.44400
H548        H  0.50443774  0.76780179  0.17951847     0.37900
H549        H  0.42920781  0.76925458  0.23714192     0.34400
H550        H  0.51175679  0.70836954  0.31362094     0.26200
H551        H  0.40424037  0.70679177  0.24251107     0.32100
H552        H  0.41241335  0.75142914  0.19298470     0.38000
H553        H  0.55432526  0.75811877  0.29352779     0.32500
H554        H  0.56955573  0.78244804  0.23835308     0.31400
H555        H  0.55637578  0.81430988  0.20541464     0.33000
H556        H  0.47525849  0.78741656  0.15387610     0.32000
H557        H  0.54496493  0.69994084  0.25371052     0.36000
H558        H  0.53213737  0.69921892  0.16903174     0.28700
H559        H  0.44327414  0.81285985  0.30244543     0.33000
H560        H  0.44215305  0.82005506  0.20356484     0.35800
H561        H  0.55858412  0.80453398  0.25086985     0.28400
H562        H  0.53417250  0.68407910  0.19190074     0.41300
H563        H  0.43108907  0.68758744  0.27473802     0.31400
H564        H  0.48694719  0.70655274  0.30169757     0.39000
H565        H  0.48402313  0.80610946  0.17229487     0.30800
H566        H  0.40345548  0.73254918  0.23288104     0.30900
H567        H  0.43554746  0.82309584  0.27805465     0.31200
C568        C  0.34357240  0.87052731  0.86078595    -0.02400
C569        C  0.44195919  0.96879539  0.76577828     0.86600
C570        C  0.43801841  0.99587256  0.76848511    -0.53600
C571        C  0.45340590  0.00898825  0.75550172     0.09500
C572        C  0.47114475  0.99437233  0.74153332     0.20500
C573        C  0.44078737  0.96450781  0.73870259    -0.54300
C574        C  0.45645128  0.97804492  0.72621057     0.09600
C575        C  0.46841861  0.96501586  0.77208759    -0.53900
C576        C  0.48352005  0.97887649  0.75938946     0.10200
H577        H  0.42411858  0.00403821  0.77886416     0.14700
H578        H  0.48357595  0.00530010  0.73119659     0.00500
H579        H  0.42875589  0.95219195  0.73038224     0.15000
H580        H  0.47440980  0.95322256  0.78579204     0.14800
C581        C  0.44159369  0.77675373  0.95943849     0.86600
C582        C  0.46857769  0.77867342  0.95412200    -0.53600
C583        C  0.48251520  0.76729549  0.97021685     0.09500
C584        C  0.46841515  0.75545544  0.98960342     0.20500
C585        C  0.43691995  0.74985076  0.96133896    -0.54300
C586        C  0.45113605  0.73886748  0.97748102     0.09600
C587        C  0.43880702  0.78602952  0.98489939    -0.53900
C588        C  0.45320109  0.77488226  0.00042481     0.10200
H589        H  0.47581717  0.78825036  0.93932797     0.14700
H590        H  0.47957045  0.74643620  0.00280852     0.00500
H591        H  0.42344717  0.74067882  0.95134679     0.15000
H592        H  0.42672559  0.80006026  0.99007461     0.14800
C593        C  0.71225309  0.53214991  0.50546487     0.86600
C594        C  0.70681061  0.50562157  0.50920151    -0.53600
C595        C  0.72077729  0.49082272  0.49595881     0.09500
C596        C  0.73820579  0.50355522  0.48011623     0.20500
C597        C  0.73919299  0.53426172  0.50996304    -0.54300
C598        C  0.75252468  0.51925794  0.49641568     0.09600
C599        C  0.70983990  0.53572958  0.47843077    -0.53900
C600        C  0.72350421  0.52038707  0.46532572     0.10200
H601        H  0.69367456  0.49925761  0.52154889     0.14700
H602        H  0.74943288  0.49138756  0.46943727     0.00500
H603        H  0.74691251  0.54665293  0.52233913     0.15000
H604        H  0.69862922  0.54903568  0.47053781     0.14800
Zr605      Zr  0.69821512  0.53210735  0.21542247     2.17500
O606        O  0.67022962  0.55971821  0.19814263    -0.51200
O607        O  0.65815399  0.52134469  0.22969512    -0.74400
O608        O  0.69369180  0.52171186  0.17309295    -0.81200
O609        O  0.71957365  0.57574552  0.26288159    -0.82900
O610        O  0.69728685  0.48275307  0.17591760    -0.78600
O611        O  0.70324423  0.57431727  0.22638924    -0.90200
O612        O  0.66109415  0.49425570  0.25876267    -0.76200
O613        O  0.69837316  0.49018304  0.21913426    -0.85700
O614        O  0.70122741  0.52348685  0.25655496    -0.85300
O615        O  0.73301887  0.51834689  0.19385267    -0.72100
O616        O  0.73528429  0.54760339  0.22908425    -0.84200
Zr617      Zr  0.77191779  0.48182153  0.25282200     2.26400
Zr618      Zr  0.73277347  0.47650679  0.19828593     2.06300
Zr619      Zr  0.73838978  0.53843607  0.26970274     2.10000
Zr620      Zr  0.70128257  0.48166397  0.25990723     1.78800
O621        O  0.76241467  0.57239081  0.28018719    -0.93000
O622        O  0.67883022  0.44820274  0.24498189    -0.40800
O623        O  0.73786573  0.49663357  0.27381609    -0.77500
O624        O  0.73459442  0.46616154  0.23910409    -0.96200
O625        O  0.76969241  0.49133709  0.21191074    -0.89500
O626        O  0.77245018  0.52384960  0.24937858    -0.92300
C627        C  0.64918847  0.50801386  0.24572494     1.01400
C628        C  0.71043286  0.58557750  0.24489098     1.14400
C629        C  0.69513146  0.50113095  0.16345665     1.05200
O630        O  0.71676489  0.44163210  0.17894970    -0.94500
O631        O  0.75368194  0.44009654  0.20265856    -0.90200
O632        O  0.77388837  0.44088844  0.23718837    -0.83400
C633        C  0.76605711  0.43030772  0.21859837     1.11800
O634        O  0.76295865  0.56399025  0.17993321    -0.96400
Zr635      Zr  0.76933650  0.53319814  0.20886330     1.88900
O636        O  0.81248699  0.49391241  0.24118379    -0.73100
O637        O  0.75649247  0.48215081  0.16289748    -0.52400
O638        O  0.78685677  0.52354421  0.17078610    -0.97000
O639        O  0.78506322  0.57107309  0.22163432    -0.54200
O640        O  0.81014790  0.52528188  0.21660791    -0.73600
C641        C  0.82185910  0.51020823  0.22845078     0.98700
O642        O  0.79761854  0.45728777  0.27685082    -0.62400
O643        O  0.71624394  0.54187603  0.30637712    -0.57200
O644        O  0.76905526  0.48881490  0.29612859    -0.93900
O645        O  0.76848024  0.52822752  0.29768707    -0.92300
O646        O  0.68931673  0.48940008  0.30043924    -0.92700
O647        O  0.70600920  0.44732667  0.28498469    -0.91500
C648        C  0.76912961  0.50836578  0.30789878     1.17600
H649        H  0.68858638  0.53077722  0.26550274     0.33500
H650        H  0.73301221  0.44942441  0.24134606     0.44400
H651        H  0.78654833  0.53048697  0.25622540     0.37900
H652        H  0.73359325  0.52281552  0.17752670     0.34400
H653        H  0.66885437  0.45467816  0.23227776     0.26200
H654        H  0.75864684  0.46619493  0.15608738     0.32100
H655        H  0.79942452  0.53539504  0.16847633     0.38000
H656        H  0.70373938  0.48685095  0.30990374     0.32500
H657        H  0.71859324  0.52655980  0.31423150     0.31400
H658        H  0.75609167  0.57792328  0.29552429     0.33000
H659        H  0.79495217  0.56752778  0.23550039     0.32000
H660        H  0.72236875  0.44175166  0.28211603     0.36000
H661        H  0.78783984  0.44360230  0.28136403     0.28700
H662        H  0.65810212  0.54979022  0.19048632     0.33000
H663        H  0.74619088  0.56862058  0.18204883     0.35800
H664        H  0.72543510  0.55312063  0.31604377     0.28400
H665        H  0.80964162  0.45076644  0.26589017     0.41300
H666        H  0.72531405  0.44031489  0.16377701     0.31400
H667        H  0.69057629  0.43818416  0.23666411     0.39000
H668        H  0.77128502  0.57973378  0.22817981     0.30800
H669        H  0.74608784  0.49035907  0.15165500     0.30900
H670        H  0.67888539  0.56707944  0.18495887     0.31200
C671        C  0.72469715  0.22988601  0.19870911     0.86600
C672        C  0.72117025  0.22754865  0.22580294    -0.53600
C673        C  0.73680225  0.24035155  0.23890948     0.09500
C674        C  0.75440209  0.25394778  0.22424557     0.20500
C675        C  0.72394031  0.25683158  0.19437644    -0.54300
C676        C  0.73956156  0.26926139  0.20805691     0.09600
C677        C  0.75096727  0.22307204  0.19460111    -0.53900
C678        C  0.76625962  0.23576729  0.20830959     0.10200
H679        H  0.70758913  0.21713810  0.23409858     0.14700
H680        H  0.76731165  0.26406203  0.23494966     0.00500
H681        H  0.71197691  0.26517549  0.18207214     0.15000
H682        H  0.75680241  0.20958810  0.18223084     0.14800
Zr683      Zr  0.69643852  0.02287037  0.72010804     2.17500
O684        O  0.66795485  0.05004260  0.70288843    -0.51200
O685        O  0.65639908  0.01108364  0.73329013    -0.74400
O686        O  0.69341562  0.01453975  0.67746716    -0.81200
O687        O  0.71538493  0.06515845  0.76940965    -0.82900
O688        O  0.69889439  0.97571057  0.67874899    -0.78600
O689        O  0.70044782  0.06469062  0.73234512    -0.90200
O690        O  0.65889052  0.97822829  0.75571172    -0.76200
O691        O  0.69859148  0.98072589  0.72096577    -0.85700
O692        O  0.69745955  0.01169532  0.76069704    -0.85300
O693        O  0.73266213  0.01225578  0.69908057    -0.72100
O694        O  0.73199623  0.03894716  0.73652780    -0.84200
Zr695      Zr  0.77097651  0.97475746  0.75766590     2.26400
Zr696      Zr  0.73467308  0.97024204  0.70103915     2.06300
Zr697      Zr  0.73304609  0.02746160  0.77667702     2.10000
Zr698      Zr  0.69995959  0.96982244  0.76131522     1.78800
O699        O  0.74579946  0.06115872  0.80003255    -0.93000
O700        O  0.68268553  0.93369816  0.74571771    -0.40800
O701        O  0.73510125  0.98558419  0.77829330    -0.77500
O702        O  0.73506253  0.95800265  0.74137692    -0.96200
O703        O  0.77010738  0.98616248  0.71723217    -0.89500
O704        O  0.76911451  0.01691183  0.75676707    -0.92300
C705        C  0.64713770  0.99439321  0.74552862     1.01400
C706        C  0.70676384  0.07540608  0.75144511     1.14400
C707        C  0.69589897  0.99450313  0.66704277     1.05200
O708        O  0.72479326  0.93644196  0.67635486    -0.94500
O709        O  0.75619479  0.93388994  0.70538665    -0.90200
O710        O  0.77447845  0.93447752  0.74102438    -0.83400
C711        C  0.76769957  0.92401443  0.72195854     1.11800
O712        O  0.76118588  0.06054301  0.68962550    -0.96400
Zr713      Zr  0.76746659  0.02803800  0.71661130     1.88900
O714        O  0.81137209  0.98920122  0.74818439    -0.73100
O715        O  0.75864296  0.98095921  0.66714712    -0.52400
O716        O  0.78672154  0.02213486  0.67860970    -0.97000
O717        O  0.78066617  0.06585537  0.73217762    -0.54200
O718        O  0.80849909  0.02058774  0.72374691    -0.73600
C719        C  0.82048651  0.00572441  0.73553203     0.98700
O720        O  0.79773413  0.95099077  0.78133291    -0.62400
O721        O  0.70649095  0.02187183  0.80995008    -0.57200
O722        O  0.76709002  0.97997330  0.80085002    -0.93900
O723        O  0.76534781  0.01917785  0.80271113    -0.92300
O724        O  0.68457921  0.97522705  0.80106410    -0.92700
O725        O  0.70661965  0.93544634  0.78585823    -0.91500
C726        C  0.76645467  0.99933829  0.81278535     1.17600
H727        H  0.68391161  0.01762892  0.76932879     0.33500
H728        H  0.73376867  0.94117718  0.74294954     0.44400
H729        H  0.78274872  0.02397712  0.76415018     0.37900
H730        H  0.73338998  0.01768506  0.68304044     0.34400
H731        H  0.66931897  0.93018677  0.75640384     0.26200
H732        H  0.77030461  0.96800347  0.66551028     0.32100
H733        H  0.79642934  0.00770602  0.68038607     0.38000
H734        H  0.66848266  0.96847553  0.80069913     0.32500
H735        H  0.71683123  0.01678734  0.82297686     0.31400
H736        H  0.75934104  0.06770718  0.79118683     0.33000
H737        H  0.79095643  0.06196185  0.74564952     0.32000
H738        H  0.72392012  0.93505693  0.78835750     0.36000
H739        H  0.78808865  0.93759297  0.78686147     0.28700
H740        H  0.65539887  0.03996367  0.69617560     0.33000
H741        H  0.74600163  0.06767862  0.69473942     0.35800
H742        H  0.70143313  0.03800579  0.81444644     0.28400
H743        H  0.80917421  0.94392566  0.77009118     0.41300
H744        H  0.73414513  0.93839146  0.66175419     0.31400
H745        H  0.67508775  0.93838959  0.73080057     0.39000
H746        H  0.76639555  0.07301590  0.73944356     0.30800
H747        H  0.74813257  0.97913104  0.65339789     0.30900
H748        H  0.67605852  0.05681038  0.68905213     0.31200
C749        C  0.74641126  0.27582208  0.77577732     0.86600
C750        C  0.75103266  0.24914144  0.77964224    -0.53600
C751        C  0.73817005  0.23498745  0.76489160     0.09500
C752        C  0.72216452  0.24833231  0.74824137     0.20500
C753        C  0.75082852  0.27967057  0.74902323    -0.54300
C754        C  0.73809638  0.26497410  0.73485176     0.09600
C755        C  0.71914038  0.27841181  0.77871490    -0.53900
C756        C  0.70668217  0.26373941  0.76397188     0.10200
H757        H  0.76323516  0.24225002  0.79259518     0.14700
H758        H  0.71163294  0.23658866  0.73664448     0.00500
H759        H  0.76298822  0.29258096  0.74197206     0.15000
H760        H  0.71070622  0.29041858  0.79111369     0.14800
Zr761      Zr  0.70277002  0.23201486  0.51882652     2.17500
O762        O  0.67141403  0.20887853  0.53683736    -0.51200
O763        O  0.70741711  0.24136457  0.56100898    -0.74400
O764        O  0.71352406  0.18964088  0.52155780    -0.81200
O765        O  0.66181053  0.28231154  0.49811558    -0.82900
O766        O  0.75343039  0.18909192  0.52001741    -0.78600
O767        O  0.66103643  0.24541177  0.51338495    -0.90200
O768        O  0.73417815  0.27087322  0.56473100    -0.76200
O769        O  0.74421669  0.23679413  0.52567454    -0.85700
O770        O  0.71072842  0.27341453  0.52086052    -0.85300
O771        O  0.72264400  0.21390036  0.48530368    -0.72100
O772        O  0.69155816  0.24844127  0.48160311    -0.84200
Zr773      Zr  0.76214214  0.27658386  0.45736105     2.26400
Zr774      Zr  0.76394031  0.21937255  0.49244235     2.06300
Zr775      Zr  0.70076649  0.28936125  0.48342683     2.10000
Zr776      Zr  0.75196212  0.27795455  0.52730733     1.78800
O777        O  0.67042094  0.30028490  0.45523630    -0.93000
O778        O  0.78422447  0.26382389  0.55185224    -0.40800
O779        O  0.74198281  0.29459224  0.49031442    -0.77500
O780        O  0.77287918  0.26042286  0.49521105    -0.96200
O781        O  0.75360844  0.23535386  0.45509453    -0.89500
O782        O  0.72069215  0.27221992  0.45044305    -0.92300
C783        C  0.71910496  0.25657277  0.57315876     1.01400
C784        C  0.65081958  0.26462902  0.50650605     1.14400
C785        C  0.73355893  0.17871207  0.52204953     1.05200
O786        O  0.79717673  0.20788939  0.51692120    -0.94500
O787        O  0.80271900  0.22473736  0.47544579    -0.90200
O788        O  0.80348897  0.26184041  0.46057722    -0.83400
C789        C  0.81368056  0.24255357  0.46717790     1.11800
O790        O  0.68029560  0.20265715  0.44798946    -0.96400
Zr791      Zr  0.71208956  0.23138473  0.44905694     1.88900
O792        O  0.75632690  0.26798785  0.41483998    -0.73100
O793        O  0.76746120  0.18360194  0.46874870    -0.52400
O794        O  0.72299507  0.19392118  0.43086197    -0.97000
O795        O  0.67811001  0.24640847  0.42747883    -0.54200
O796        O  0.72824017  0.23965657  0.41145125    -0.73600
C797        C  0.74342101  0.25363066  0.40275130     0.98700
O798        O  0.79030755  0.30251770  0.43799472    -0.62400
O799        O  0.69315173  0.32385264  0.50808435    -0.57200
O800        O  0.75290669  0.31948147  0.46128272    -0.93900
O801        O  0.71328655  0.32086326  0.45846428    -0.92300
O802        O  0.74022950  0.31674330  0.54193203    -0.92700
O803        O  0.78448293  0.30595281  0.52883575    -0.91500
C804        C  0.73323202  0.33105215  0.45986263     1.17600
H805        H  0.70143159  0.28105217  0.53307716     0.33500
H806        H  0.78921309  0.26271477  0.49934883     0.44400
H807        H  0.71600058  0.28003360  0.43614662     0.37900
H808        H  0.71914192  0.19747706  0.48265153     0.34400
H809        H  0.78456618  0.27481448  0.56544788     0.26200
H810        H  0.77607399  0.18848564  0.45441838     0.32100
H811        H  0.74015863  0.19517707  0.42773442     0.38000
H812        H  0.73961927  0.31535734  0.55926959     0.32500
H813        H  0.70806039  0.33289257  0.50773764     0.31400
H814        H  0.66306312  0.31475332  0.46182940     0.33000
H815        H  0.68432497  0.25906771  0.41732804     0.32000
H816        H  0.79599398  0.30037397  0.51686474     0.36000
H817        H  0.80255073  0.30596120  0.44992763     0.28700
H818        H  0.67906585  0.19973169  0.54948846     0.33000
H819        H  0.67438833  0.20211000  0.46439237     0.35800
H820        H  0.68190401  0.33349917  0.49891944     0.28400
H821        H  0.79840016  0.29258655  0.42603164     0.41300
H822        H  0.79964727  0.22152621  0.52755952     0.31400
H823        H  0.77846940  0.24882963  0.55851590     0.39000
H824        H  0.66838803  0.25474406  0.43944054     0.30800
H825        H  0.77893006  0.17370206  0.47736876     0.30900
H826        H  0.66699761  0.19702468  0.52478333     0.31200
C827        C  0.84656315  0.87877979  0.36661496    -0.02400
C828        C  0.75901952  0.97977846  0.47099854     0.86600
C829        C  0.76165102  0.97422560  0.49762766    -0.53600
C830        C  0.74769900  0.98809737  0.51186195     0.09500
C831        C  0.73248483  0.00562326  0.49849349     0.20500
C832        C  0.73219452  0.97754616  0.46618392    -0.54300
C833        C  0.71854302  0.99103888  0.48091481     0.09600
C834        C  0.76386861  0.00671447  0.46930177    -0.53900
C835        C  0.74954030  0.02005784  0.48377453     0.10200
H836        H  0.77339864  0.96076063  0.50443625     0.14700
H837        H  0.72098445  0.01662363  0.51010279     0.00500
H838        H  0.72478759  0.96628727  0.45259584     0.15000
H839        H  0.77677597  0.01440496  0.45750282     0.14800
C840        C  0.95197982  0.78898520  0.46270484     0.86600
C841        C  0.94695835  0.76228045  0.45994490    -0.53600
C842        C  0.96188117  0.74843952  0.47285019     0.09500
C843        C  0.97982390  0.76215502  0.48724641     0.20500
C844        C  0.95057162  0.79322776  0.48981026    -0.54300
C845        C  0.96536389  0.77903402  0.50238397     0.09600
C846        C  0.97878151  0.79134290  0.45644950    -0.53900
C847        C  0.99320639  0.77708441  0.46964499     0.10200
H848        H  0.93317440  0.75512194  0.44879243     0.14700
H849        H  0.99138466  0.75049589  0.49781795     0.00500
H850        H  0.93878468  0.80565033  0.49845243     0.15000
H851        H  0.98549558  0.80297509  0.44294420     0.14800
C852        C  0.74702999  0.78837310  0.26374534     0.86600
C853        C  0.72037150  0.79442539  0.26623783    -0.53600
C854        C  0.70634147  0.78140849  0.25157985     0.09500
C855        C  0.71966575  0.76401242  0.23594630     0.20500
C856        C  0.74809305  0.76127831  0.26756652    -0.54300
C857        C  0.73361274  0.74868175  0.25279479     0.09600
C858        C  0.75228280  0.79158281  0.23702471    -0.53900
C859        C  0.73779884  0.77851931  0.22264898     0.10200
H860        H  0.71327531  0.80730750  0.27859582     0.14700
H861        H  0.70772098  0.75390434  0.22415076     0.00500
H862        H  0.75911250  0.75301736  0.28075841     0.15000
H863        H  0.76612612  0.80287977  0.23028378     0.14800
C864        C  0.24021945  0.46710533  0.45453726     0.86600
C865        C  0.24490031  0.49394161  0.45241781    -0.53600
C866        C  0.23037469  0.50751501  0.46637395     0.09500
C867        C  0.21287683  0.49326405  0.48071474     0.20500
C868        C  0.24213487  0.46203649  0.48127538    -0.54300
C869        C  0.22787604  0.47615857  0.49485554     0.09600
C870        C  0.21350001  0.46448734  0.44895179    -0.53900
C871        C  0.19943078  0.47831173  0.46307478     0.10200
H872        H  0.25853272  0.50129495  0.44122608     0.14700
H873        H  0.20077832  0.50426776  0.49161877     0.00500
H874        H  0.25411871  0.44910459  0.48867612     0.15000
H875        H  0.20647897  0.45286490  0.43547407     0.14800
Zr876      Zr  0.47060689  0.47758708  0.95091474     2.17500
O877        O  0.45591166  0.44674063  0.92481021    -0.51200
O878        O  0.48731651  0.48630602  0.91180877    -0.74400
O879        O  0.42869583  0.48588103  0.94235798    -0.81200
O880        O  0.52118232  0.43900349  0.97120774    -0.82900
O881        O  0.43328233  0.52439560  0.94404338    -0.78600
O882        O  0.48281867  0.43692767  0.96038228    -0.90200
O883        O  0.51166259  0.51791123  0.91508035    -0.76200
O884        O  0.47217194  0.51977536  0.94996697    -0.85700
O885        O  0.51108565  0.48903620  0.95539531    -0.85300
O886        O  0.44579263  0.49142041  0.98346312    -0.72100
O887        O  0.48321463  0.46399145  0.98876153    -0.84200
Zr888      Zr  0.50087418  0.53159266  0.02454122     2.26400
Zr889      Zr  0.44853594  0.53353651  0.98234436     2.06300
Zr890      Zr  0.52331188  0.47550467  0.99308301     2.10000
Zr891      Zr  0.51222303  0.53099720  0.95501690     1.78800
O892        O  0.53686001  0.44076536  0.01411116    -0.93000
O893        O  0.49818733  0.56522625  0.93337593    -0.40800
O894        O  0.52523185  0.51761079  0.99234316    -0.77500
O895        O  0.48875483  0.54602475  0.98662558    -0.96200
O896        O  0.46061923  0.51988230  0.02007383    -0.89500
O897        O  0.49954119  0.48925348  0.02545136    -0.92300
C898        C  0.50155492  0.50173281  0.90323129     1.01400
C899        C  0.50271025  0.42730562  0.96586714     1.14400
C900        C  0.41980391  0.50670610  0.94266498     1.05200
O901        O  0.42921220  0.56745884  0.96449423    -0.94500
O902        O  0.44932772  0.57061075  0.00219696    -0.90200
O903        O  0.48202843  0.57159548  0.02532918    -0.83400
C904        C  0.46351764  0.58121368  0.01598381     1.11800
O905        O  0.43873394  0.44129445  0.01227896    -0.96400
Zr906      Zr  0.45953283  0.47790903  0.02057901     1.88900
O907        O  0.48887096  0.51847753  0.06395038    -0.73100
O908        O  0.41086664  0.52698084  0.00215086    -0.52400
O909        O  0.41799528  0.48211661  0.03114097    -0.97000
O910        O  0.47263957  0.44430572  0.04375785    -0.54200
O911        O  0.45955325  0.49143673  0.06052354    -0.73600
C912        C  0.47300185  0.50479350  0.07259155     0.98700
O913        O  0.52066824  0.55830969  0.05177213    -0.62400
O914        O  0.56091974  0.47717255  0.97212188    -0.57200
O915        O  0.54444337  0.52643312  0.02535019    -0.93900
O916        O  0.54634008  0.48717484  0.02668945    -0.92300
O917        O  0.55391349  0.52536184  0.94563607    -0.92700
O918        O  0.53545971  0.56668814  0.95973782    -0.91500
C919        C  0.55638145  0.50712459  0.02712329     1.17600
H920        H  0.52102020  0.48209202  0.94344170     0.33500
H921        H  0.49044565  0.56283310  0.98515524     0.44400
H922        H  0.50544197  0.48318400  0.04012070     0.37900
H923        H  0.42959484  0.48620816  0.98289008     0.34400
H924        H  0.49086928  0.55882483  0.91891059     0.26200
H925        H  0.41361323  0.53219829  0.01856644     0.32100
H926        H  0.41645028  0.47394663  0.04639512     0.38000
H927        H  0.55450456  0.51136855  0.93515708     0.32500
H928        H  0.57083700  0.48825418  0.98118031     0.31400
H929        H  0.55431946  0.44177335  0.01391008     0.33000
H930        H  0.48210537  0.45095924  0.05679502     0.32000
H931        H  0.54114700  0.56613888  0.97617202     0.36000
H932        H  0.52505055  0.57219071  0.04227917     0.28700
H933        H  0.44841061  0.45510500  0.91155486     0.33000
H934        H  0.44809444  0.43347263  0.99968804     0.35800
H935        H  0.56828991  0.46154970  0.97462611     0.28400
H936        H  0.50817357  0.56408650  0.06262846     0.41300
H937        H  0.41301796  0.56809782  0.97107969     0.31400
H938        H  0.48469141  0.57138597  0.94271733     0.39000
H939        H  0.48433470  0.43605990  0.03361923     0.30800
H940        H  0.39988868  0.53892983  0.99583358     0.30900
H941        H  0.44259362  0.43952742  0.93346854     0.31200
C942        C  0.44568963  0.47575397  0.27499262     0.86600
C943        C  0.44243290  0.47125223  0.24822673    -0.53600
C944        C  0.45687364  0.48468540  0.23446377     0.09500
C945        C  0.47280549  0.50106445  0.24832489     0.20500
C946        C  0.47271178  0.47204399  0.27924835    -0.54300
C947        C  0.48673798  0.48556906  0.26495293     0.09600
C948        C  0.44202180  0.50302803  0.27781611    -0.53900
C949        C  0.45674098  0.51607220  0.26375936     0.10200
H950        H  0.43005449  0.45859151  0.24100492     0.14700
H951        H  0.48398801  0.51189671  0.23668687     0.00500
H952        H  0.47984187  0.45992656  0.29210576     0.15000
H953        H  0.42945085  0.51123794  0.28975663     0.14800
C954        C  0.34555243  0.37168007  0.36253898    -0.02400
C955        C  0.44776831  0.28867198  0.46724725     0.86600
C956        C  0.47513975  0.29257091  0.46646901    -0.53600
C957        C  0.48737442  0.27864942  0.48206207     0.09500
C958        C  0.47136994  0.26319128  0.49700747     0.20500
C959        C  0.44495101  0.26179122  0.46364019    -0.54300
C960        C  0.45719570  0.24872529  0.47957392     0.09600
C961        C  0.44096026  0.29314823  0.49331730    -0.53900
C962        C  0.45371061  0.27984977  0.50868915     0.10200
H963        H  0.48399051  0.30436616  0.45442968     0.14700
H964        H  0.48101085  0.25215425  0.50989317     0.00500
H965        H  0.43423229  0.25391587  0.44990065     0.15000
H966        H  0.42774711  0.30590566  0.49900381     0.14800
Zr967      Zr  0.51047999  0.03876427  0.52107855     2.17500
O968        O  0.52948600  0.05694584  0.55502897    -0.51200
O969        O  0.50016785  0.08082119  0.51676248    -0.74400
O970        O  0.55325820  0.04185975  0.51495582    -0.81200
O971        O  0.45931437  0.01182768  0.55642015    -0.82900
O972        O  0.55292480  0.04621968  0.47603250    -0.78600
O973        O  0.49546577  0.02861625  0.56070245    -0.90200
O974        O  0.49869027  0.08210200  0.47756248    -0.76200
O975        O  0.51123973  0.04719610  0.47982277    -0.85700
O976        O  0.47005770  0.04318293  0.50926953    -0.85300
O977        O  0.53022317  0.00565875  0.50145201    -0.72100
O978        O  0.49190553  0.00135321  0.52742370    -0.84200
Zr979      Zr  0.47060786  0.98166671  0.45471479     2.26400
Zr980      Zr  0.52941304  0.01447775  0.46017245     2.06300
Zr981      Zr  0.45190212  0.00577535  0.51524362     2.10000
Zr982      Zr  0.47133259  0.05141225  0.46817044     1.78800
O983        O  0.42662712  0.98578551  0.54355931    -0.93000
O984        O  0.48025937  0.06953159  0.43046578    -0.40800
O985        O  0.45178482  0.01471920  0.47424408    -0.77500
O986        O  0.48906824  0.01931599  0.44740988    -0.96200
O987        O  0.51100303  0.97753042  0.46650170    -0.89500
O988        O  0.47054369  0.97272760  0.49613029    -0.92300
C989        C  0.49901183  0.09238129  0.49747553     1.01400
C990        C  0.47632587  0.01948619  0.56902234     1.14400
C991        C  0.56414255  0.04364948  0.49522059     1.05200
O992        O  0.55630007  0.03143565  0.43140464    -0.94500
O993        O  0.52420706  0.00435016  0.41914187    -0.90200
O994        O  0.48933539  0.98481914  0.41539701    -0.83400
C995        C  0.50836164  0.99398727  0.40685545     1.11800
O996        O  0.52611488  0.96437045  0.54713752    -0.96400
Zr997      Zr  0.51071421  0.96920328  0.50750958     1.88900
O998        O  0.47659012  0.93952582  0.46251681    -0.73100
O999        O  0.56201749  0.98666589  0.46423455    -0.52400
O1000       O  0.55095945  0.95414236  0.51038138    -0.97000
O1001       O  0.49037503  0.93633703  0.52602637    -0.54200
O1002       O  0.51347516  0.94083516  0.47621704    -0.73600
C1003       C  0.49546485  0.92929980  0.46967711     0.98700
O1004       O  0.44802143  0.96129934  0.42432285    -0.62400
O1005       O  0.42044616  0.03531611  0.51594027    -0.57200
O1006       O  0.42741466  0.98672120  0.45920840    -0.93900
O1007       O  0.42589590  0.97766138  0.49711851    -0.92300
O1008       O  0.44429858  0.08062539  0.48489406    -0.92700
O1009       O  0.43685881  0.05848473  0.44363348    -0.91500
C1010       C  0.41554088  0.98301317  0.47813473     1.17600
H1011       H  0.46220304  0.05538882  0.51832753     0.33500
H1012       H  0.48760706  0.02419009  0.43129782     0.44400
H1013       H  0.46250873  0.95818297  0.49951858     0.37900
H1014       H  0.54613646  0.00271836  0.50675370     0.34400
H1015       H  0.47594115  0.08633195  0.43262587     0.26200
H1016       H  0.55716969  0.97260772  0.45508222     0.32100
H1017       H  0.54950174  0.93691972  0.50795155     0.38000
H1018       H  0.44906588  0.09568933  0.47763171     0.32500
H1019       H  0.41855857  0.04005557  0.49933482     0.31400
H1020       H  0.41330351  0.99668415  0.54682230     0.33000
H1021       H  0.48432115  0.94269464  0.54115840     0.32000
H1022       H  0.42794365  0.04352158  0.44392407     0.36000
H1023       H  0.44556807  0.97295978  0.41168669     0.28700
H1024       H  0.53833509  0.07053151  0.54872419     0.33000
H1025       H  0.53383602  0.97958124  0.55078659     0.35800
H1026       H  0.40579527  0.02659353  0.51954385     0.28400
H1027       H  0.45898659  0.94943991  0.41747607     0.41300
H1028       H  0.54931321  0.04696847  0.42761308     0.31400
H1029       H  0.49773966  0.06952122  0.42956872     0.39000
H1030       H  0.50306659  0.92516712  0.53041905     0.30800
H1031       H  0.57509247  0.99353033  0.45496494     0.30900
H1032       H  0.54180162  0.04558209  0.55996587     0.31200
C1033       C  0.52536538  0.03598469  0.20517632     0.86600
C1034       C  0.52747554  0.00917488  0.19943335    -0.53600
C1035       C  0.51353493  0.99540741  0.21354830     0.09500
C1036       C  0.49948927  0.00922729  0.23175831     0.20500
C1037       C  0.49815389  0.04113257  0.20406511    -0.54300
C1038       C  0.48488283  0.02690910  0.21825663     0.09600
C1039       C  0.53135325  0.03760275  0.23186902    -0.53900
C1040       C  0.51754480  0.02334951  0.24563092     0.10200
H1041       H  0.53877637  0.00194289  0.18569105     0.14700
H1042       H  0.48858650  0.99763359  0.24297031     0.00500
H1043       H  0.49003066  0.05456163  0.19333192     0.15000
H1044       H  0.54518457  0.04871918  0.23898333     0.14800
C1045       C  0.02714989  0.53707583  0.20643126     0.86600
C1046       C  0.00056089  0.54025499  0.20004192    -0.53600
C1047       C  0.98560518  0.52671835  0.21333600     0.09500
C1048       C  0.99826557  0.51221644  0.23182376     0.20500
C1049       C  0.02835978  0.54248069  0.23317699    -0.54300
C1050       C  0.01294483  0.52937549  0.24625821     0.09600
C1051       C  0.03142036  0.50998961  0.20485002    -0.53900
C1052       C  0.01609665  0.49720863  0.21828713     0.10200
H1053       H  0.99439484  0.55138237  0.18586883     0.14700
H1054       H  0.98606911  0.50178794  0.24293220     0.00500
H1055       H  0.04045338  0.55508872  0.24095949     0.15000
H1056       H  0.04518048  0.50160250  0.19446773     0.14800
Zr1057     Zr  0.99922336  0.53503350  0.51567110     2.17500
O1058       O  0.01525208  0.55693537  0.54905515    -0.51200
O1059       O  0.98814855  0.57669975  0.50951883    -0.74400
O1060       O  0.04182146  0.54074841  0.50914717    -0.81200
O1061       O  0.95058159  0.50697426  0.55375296    -0.82900
O1062       O  0.03969870  0.54562427  0.47049883    -0.78600
O1063       O  0.98685196  0.52403255  0.55589299    -0.90200
O1064       O  0.95548702  0.57824197  0.48656456    -0.76200
O1065       O  0.99556071  0.54349959  0.47465572    -0.85700
O1066       O  0.95792789  0.53366542  0.50650563    -0.85300
O1067       O  0.02138661  0.50399628  0.49526179    -0.72100
O1068       O  0.98574487  0.49567756  0.52369201    -0.84200
Zr1069     Zr  0.96279182  0.47310980  0.45209477     2.26400
Zr1070     Zr  0.01732597  0.51311374  0.45444826     2.06300
Zr1071     Zr  0.94491487  0.49436254  0.51380648     2.10000
Zr1072     Zr  0.95460730  0.54179979  0.46558044     1.78800
O1073       O  0.93317552  0.46489790  0.54246170    -0.93000
O1074       O  0.96903497  0.56966576  0.43649557    -0.40800
O1075       O  0.94097899  0.50316216  0.47302824    -0.77500
O1076       O  0.97624613  0.51266349  0.44398523    -0.96200
O1077       O  0.00391514  0.47402280  0.46178395    -0.89500
O1078       O  0.96612442  0.46409852  0.49321882    -0.92300
C1079       C  0.97112692  0.58783288  0.49944178     1.01400
C1080       C  0.96806635  0.51526020  0.56527331     1.14400
C1081       C  0.05190690  0.54269185  0.48899029     1.05200
O1082       O  0.03245514  0.53804030  0.42316241    -0.94500
O1083       O  0.01469084  0.49785369  0.41497603    -0.90200
O1084       O  0.97930436  0.47910675  0.41205239    -0.83400
C1085       C  0.99827704  0.48801574  0.40309354     1.11800
O1086       O  0.03060154  0.46692107  0.53830746    -0.96400
Zr1087     Zr  0.00685223  0.46570654  0.50269242     1.88900
O1088       O  0.97187664  0.43134579  0.45946513    -0.73100
O1089       O  0.05519685  0.49254080  0.45410635    -0.52400
O1090       O  0.04735382  0.45165615  0.49761289    -0.97000
O1091       O  0.99246047  0.43713038  0.53107520    -0.54200
O1092       O  0.00716730  0.43131971  0.47805604    -0.73600
C1093       C  0.99007549  0.42082378  0.46798789     0.98700
O1094       O  0.94162131  0.45057983  0.42222441    -0.62400
O1095       O  0.90786133  0.51536048  0.52067144    -0.57200
O1096       O  0.91942557  0.47497618  0.45833795    -0.93900
O1097       O  0.91835954  0.46607270  0.49648506    -0.92300
O1098       O  0.91364946  0.55239446  0.47393879    -0.92700
O1099       O  0.92905339  0.54199315  0.43120237    -0.91500
C1100       C  0.90779072  0.47047703  0.47730652     1.17600
H1101       H  0.94897129  0.54469406  0.51611204     0.33500
H1102       H  0.97404572  0.51725449  0.42783599     0.44400
H1103       H  0.95960802  0.44896447  0.49706598     0.37900
H1104       H  0.03772284  0.50221879  0.49962671     0.34400
H1105       H  0.97874148  0.58104437  0.44547645     0.26200
H1106       H  0.05116108  0.47565477  0.45534764     0.32100
H1107       H  0.05758051  0.46563766  0.49950842     0.38000
H1108       H  0.91150913  0.56824974  0.46709208     0.32500
H1109       H  0.90056374  0.51673418  0.50495172     0.31400
H1110       H  0.91657377  0.46877449  0.54649674     0.33000
H1111       H  0.98752317  0.42330950  0.52161822     0.32000
H1112       H  0.92957777  0.52559345  0.42516775     0.36000
H1113       H  0.93691846  0.46215277  0.41014347     0.28700
H1114       H  0.01927387  0.57269530  0.54291371     0.33000
H1115       H  0.02713136  0.48252457  0.54544759     0.35800
H1116       H  0.89772638  0.50404090  0.52914558     0.28400
H1117       H  0.95372277  0.44053124  0.41444979     0.41300
H1118       H  0.04986772  0.53672009  0.42426380     0.31400
H1119       H  0.98065612  0.56062110  0.42697021     0.39000
H1120       H  0.97754723  0.44395215  0.53726454     0.30800
H1121       H  0.06117576  0.49425125  0.43783011     0.30900
H1122       H  0.03069593  0.54949948  0.55250658     0.31200
C1123       C  0.01616076  0.22343268  0.51078696     0.86600
C1124       C  0.02111499  0.22298828  0.48382859    -0.53600
C1125       C  0.00665314  0.23782998  0.47144074     0.09500
C1126       C  0.98899629  0.25134732  0.48670494     0.20500
C1127       C  0.01841084  0.24978491  0.51748738    -0.54300
C1128       C  0.00391551  0.26409403  0.50483139     0.09600
C1129       C  0.98924125  0.21797596  0.51295186    -0.53900
C1130       C  0.97517449  0.23297433  0.50019945     0.10200
H1131       H  0.03482060  0.21254762  0.47536522     0.14700
H1132       H  0.97764649  0.26349792  0.47642805     0.00500
H1133       H  0.03047185  0.25645497  0.53074247     0.15000
H1134       H  0.98214453  0.20397322  0.52374134     0.14800
C1135       C  0.24233138  0.96438163  0.95893880     0.86600
C1136       C  0.21586245  0.96358582  0.95181899    -0.53600
C1137       C  0.20175758  0.97771742  0.96564428     0.09500
C1138       C  0.21502046  0.99123614  0.98460194     0.20500
C1139       C  0.24868739  0.99088058  0.95816607    -0.54300
C1140       C  0.23421951  0.00481859  0.97180299     0.09600
C1141       C  0.24215441  0.95824474  0.98565990    -0.53900
C1142       C  0.22776613  0.97261067  0.99887687     0.10200
H1143       H  0.20898405  0.95250730  0.93781817     0.14700
H1144       H  0.20314789  0.00268093  0.99533732     0.00500
H1145       H  0.26322866  0.99780073  0.94785654     0.15000
H1146       H  0.25221474  0.94405722  0.99346400     0.14800
Zr1147     Zr  0.99796263  0.02857703  0.01322102     2.17500
O1148       O  0.01421297  0.05114829  0.04599415    -0.51200
O1149       O  0.98591612  0.07014716  0.00801072    -0.74400
O1150       O  0.04040500  0.03473519  0.00657505    -0.81200
O1151       O  0.95035287  0.99860612  0.05139010    -0.82900
O1152       O  0.03805461  0.03877274  0.96788838    -0.78600
O1153       O  0.98585760  0.01708305  0.05355598    -0.90200
O1154       O  0.95679248  0.07223223  0.98070736    -0.76200
O1155       O  0.99525709  0.03615565  0.97189284    -0.85700
O1156       O  0.95693462  0.02755863  0.00299755    -0.85300
O1157       O  0.02051385  0.99722364  0.99358004    -0.72100
O1158       O  0.98424753  0.98947055  0.02163017    -0.84200
Zr1159     Zr  0.96274617  0.96514313  0.95006570     2.26400
Zr1160     Zr  0.01699111  0.00535874  0.95236497     2.06300
Zr1161     Zr  0.94361129  0.98854708  0.01096447     2.10000
Zr1162     Zr  0.95464034  0.03456114  0.96174008     1.78800
O1163       O  0.92550368  0.96392654  0.04087579    -0.93000
O1164       O  0.96969019  0.06072083  0.93136807    -0.40800
O1165       O  0.94068694  0.99605036  0.96983131    -0.77500
O1166       O  0.97619966  0.00455694  0.94121179    -0.96200
O1167       O  0.00371184  0.96654892  0.96060950    -0.89500
O1168       O  0.96514503  0.95742960  0.99183462    -0.92300
C1169       C  0.97049571  0.08154812  0.99587291     1.01400
C1170       C  0.96755245  0.00730590  0.06297020     1.14400
C1171       C  0.05036281  0.03627480  0.98633143     1.05200
O1172       O  0.03015190  0.03034061  0.92029862    -0.94500
O1173       O  0.01519655  0.98876680  0.91342709    -0.90200
O1174       O  0.97990850  0.96998139  0.90999777    -0.83400
C1175       C  0.99912726  0.97867210  0.90131307     1.11800
O1176       O  0.02852167  0.96256273  0.03799783    -0.96400
Zr1177     Zr  0.00584358  0.95910401  0.00177442     1.88900
O1178       O  0.97204145  0.92399022  0.95984754    -0.73100
O1179       O  0.05557392  0.98616458  0.95047371    -0.52400
O1180       O  0.04549368  0.94221325  0.00196709    -0.97000
O1181       O  0.98929704  0.92823648  0.02635401    -0.54200
O1182       O  0.00901264  0.93010806  0.97111400    -0.73600
C1183       C  0.99186517  0.91630721  0.96754387     0.98700
O1184       O  0.94143000  0.94216907  0.92064593    -0.62400
O1185       O  0.90829732  0.01289048  0.01523764    -0.57200
O1186       O  0.91954139  0.96641654  0.95546756    -0.93900
O1187       O  0.91882601  0.95862217  0.99379876    -0.92300
O1188       O  0.91412765  0.04724942  0.96914413    -0.92700
O1189       O  0.92941341  0.03272084  0.92718452    -0.91500
C1190       C  0.90811058  0.96259065  0.97464029     1.17600
H1191       H  0.94795116  0.03900811  0.01204036     0.33500
H1192       H  0.97427112  0.00862716  0.92489671     0.44400
H1193       H  0.95862376  0.94235873  0.99615454     0.37900
H1194       H  0.03679842  0.99567576  0.99825504     0.34400
H1195       H  0.97644925  0.07437820  0.93987467     0.26200
H1196       H  0.05883687  0.98060797  0.96657973     0.32100
H1197       H  0.05116367  0.94330245  0.98552528     0.38000
H1198       H  0.90527338  0.03250710  0.97184194     0.32500
H1199       H  0.89554338  0.00165387  0.01896253     0.31400
H1200       H  0.93491711  0.94918395  0.04057882     0.33000
H1201       H  0.98173179  0.93681009  0.03962957     0.32000
H1202       H  0.92726863  0.01565638  0.92417720     0.36000
H1203       H  0.93645054  0.95365304  0.90858653     0.28700
H1204       H  0.02091948  0.06553160  0.03888838     0.33000
H1205       H  0.03825470  0.97688420  0.03610150     0.35800
H1206       H  0.91071207  0.02167949  0.03013825     0.28400
H1207       H  0.95351265  0.93219724  0.91275588     0.41300
H1208       H  0.04697042  0.02607371  0.91786959     0.31400
H1209       H  0.98361832  0.05239644  0.92472162     0.39000
H1210       H  0.00319405  0.92037022  0.03339617     0.30800
H1211       H  0.05290379  0.97157482  0.94123830     0.30900
H1212       H  0.02813565  0.04203431  0.05130603     0.31200
C1213       C  0.94644354  0.96460577  0.26293981     0.86600
C1214       C  0.97326098  0.95896034  0.26538879    -0.53600
C1215       C  0.98712345  0.97135338  0.25001715     0.09500
C1216       C  0.97318575  0.98741103  0.23387675     0.20500
C1217       C  0.94475356  0.99173642  0.26552409    -0.54300
C1218       C  0.95884964  0.00350910  0.24996409     0.09600
C1219       C  0.94090051  0.95974979  0.23653622    -0.53900
C1220       C  0.95542367  0.97172045  0.22152821     0.10200
H1221       H  0.98043387  0.94690259  0.27827951     0.14700
H1222       H  0.98440967  0.99725466  0.22133796     0.00500
H1223       H  0.93333317  0.00059903  0.27818582     0.15000
H1224       H  0.92735078  0.94773875  0.23039993     0.14800
C1225       C  0.95524418  0.28330373  0.95876045     0.86600
C1226       C  0.95521230  0.28797741  0.98575704    -0.53600
C1227       C  0.97085920  0.27424006  0.99778830     0.09500
C1228       C  0.98498338  0.25743120  0.98229485     0.20500
C1229       C  0.98160695  0.28616937  0.95115816    -0.54300
C1230       C  0.99705082  0.27254871  0.96387978     0.09600
C1231       C  0.95065158  0.25640717  0.95685379    -0.53900
C1232       C  0.96639156  0.24299934  0.96938838     0.10200
H1233       H  0.94333469  0.29997745  0.99484773     0.14700
H1234       H  0.99756569  0.24640876  0.99240497     0.00500
H1235       H  0.98740379  0.29823288  0.93761190     0.15000
H1236       H  0.93598584  0.24888684  0.94716378     0.14800
Zr1237     Zr  0.26453969  0.28644310  0.96519816     2.17500
O1238       O  0.29477924  0.30790097  0.94357065    -0.51200
O1239       O  0.25814047  0.32866564  0.97491815    -0.74400
O1240       O  0.25506595  0.28804126  0.92266109    -0.81200
O1241       O  0.30608725  0.26107883  0.01252723    -0.82900
O1242       O  0.21541559  0.28706460  0.92333322    -0.78600
O1243       O  0.30637141  0.27896908  0.97683699    -0.90200
O1244       O  0.22378691  0.33148115  0.99546320    -0.76200
O1245       O  0.22261404  0.29122512  0.96852509    -0.85700
O1246       O  0.25506883  0.28928901  0.00635540    -0.85300
O1247       O  0.24709465  0.25167684  0.94700641    -0.72100
O1248       O  0.27609517  0.24997058  0.98303518    -0.84200
Zr1249     Zr  0.20665405  0.22275850  0.00867095     2.26400
Zr1250     Zr  0.20514534  0.25693288  0.95114910     2.06300
Zr1251     Zr  0.26586268  0.25251355  0.02365271     2.10000
Zr1252     Zr  0.21323604  0.29329061  0.00924022     1.78800
O1253       O  0.29758680  0.23423797  0.04600960    -0.93000
O1254       O  0.17592012  0.31096814  0.99720550    -0.40800
O1255       O  0.22412527  0.25694660  0.02695542    -0.77500
O1256       O  0.19456400  0.25999409  0.99186354    -0.96200
O1257       O  0.21693080  0.22017497  0.96787731    -0.89500
O1258       O  0.24873294  0.21800010  0.00624360    -0.92300
C1259       C  0.24142479  0.34061168  0.98494171     1.01400
C1260       C  0.31690394  0.26987767  0.99484750     1.14400
C1261       C  0.23492924  0.28801754  0.91215107     1.05200
O1262       O  0.17120152  0.27981497  0.93810078    -0.94500
O1263       O  0.16719181  0.23809691  0.95566123    -0.90200
O1264       O  0.16548051  0.22509313  0.99338379    -0.83400
C1265       C  0.15576746  0.23070181  0.97359811     1.11800
O1266       O  0.29354562  0.21529342  0.94016425    -0.96400
Zr1267     Zr  0.25884265  0.21614319  0.96561383     1.88900
O1268       O  0.21452595  0.18053200  0.00017207    -0.73100
O1269       O  0.20268411  0.23368984  0.91504151    -0.52400
O1270       O  0.25113961  0.19952590  0.92676336    -0.97000
O1271       O  0.29254242  0.19504099  0.98204401    -0.54200
O1272       O  0.24396964  0.17787305  0.97302219    -0.73600
C1273       C  0.22847332  0.16877448  0.98639021     0.98700
O1274       O  0.18032606  0.20013125  0.03382643    -0.62400
O1275       O  0.26712505  0.28238872  0.05457414    -0.57200
O1276       O  0.21310102  0.22704878  0.05169257    -0.93900
O1277       O  0.25274653  0.22606975  0.05408277    -0.92300
O1278       O  0.22633138  0.31330550  0.04490223    -0.92700
O1279       O  0.18387093  0.29465019  0.04060704    -0.91500
C1280       C  0.23237133  0.22643288  0.06375385     1.17600
H1281       H  0.26322364  0.30232209  0.01369650     0.33500
H1282       H  0.17805728  0.26372448  0.99386992     0.44400
H1283       H  0.25377810  0.20401755  0.01433654     0.37900
H1284       H  0.25153013  0.24898210  0.93082708     0.34400
H1285       H  0.17623675  0.32720738  0.00365676     0.26200
H1286       H  0.21871285  0.23401816  0.90806226     0.32100
H1287       H  0.23714485  0.18932860  0.92879559     0.38000
H1288       H  0.22425192  0.33031649  0.04177129     0.32500
H1289       H  0.26379136  0.27370790  0.06925129     0.31400
H1290       H  0.29889994  0.24382557  0.06056089     0.33000
H1291       H  0.28610213  0.18537754  0.99496903     0.32000
H1292       H  0.17897716  0.27804918  0.04255511     0.36000
H1293       H  0.16808039  0.21148486  0.03918318     0.28700
H1294       H  0.28621672  0.32055399  0.93520780     0.33000
H1295       H  0.30387757  0.22789725  0.94639787     0.35800
H1296       H  0.28400517  0.28672773  0.05573064     0.28400
H1297       H  0.17192761  0.18920614  0.02312276     0.41300
H1298       H  0.16716677  0.27311762  0.92249661     0.31400
H1299       H  0.17748597  0.31295386  0.97998490     0.39000
H1300       H  0.30197724  0.20733078  0.99007340     0.30800
H1301       H  0.20059751  0.21726522  0.92037164     0.30900
H1302       H  0.30018783  0.29695823  0.93100019     0.31200
Zr1303     Zr  0.27240153  0.98095905  0.26393046     2.17500
O1304       O  0.29754547  0.96171563  0.29283565    -0.51200
O1305       O  0.31273901  0.99491459  0.25511183    -0.74400
O1306       O  0.27882395  0.93916591  0.25439531    -0.81200
O1307       O  0.25887074  0.03323877  0.30161903    -0.82900
O1308       O  0.27664355  0.94167760  0.21538600    -0.78600
O1309       O  0.26592883  0.99435451  0.30510840    -0.90200
O1310       O  0.31033973  0.02113937  0.22519284    -0.76200
O1311       O  0.27353395  0.98385194  0.22181962    -0.85700
O1312       O  0.26924291  0.02181551  0.25426275    -0.85300
O1313       O  0.23885876  0.95832012  0.24915455    -0.72100
O1314       O  0.23479874  0.99402122  0.27928039    -0.84200
Zr1315     Zr  0.20022968  0.01649476  0.21231352     2.26400
Zr1316     Zr  0.24024496  0.96227862  0.20729938     2.06300
Zr1317     Zr  0.23171043  0.03453022  0.26924130     2.10000
Zr1318     Zr  0.27020043  0.02444588  0.21251797     1.78800
O1319       O  0.21013526  0.03950475  0.30608960    -0.93000
O1320       O  0.29396212  0.01284350  0.17846624    -0.40800
O1321       O  0.23335664  0.03825887  0.22744196    -0.77500
O1322       O  0.23785344  0.00297866  0.19667744    -0.96200
O1323       O  0.20292805  0.97557231  0.22194032    -0.89500
O1324       O  0.19848693  0.01314394  0.25437211    -0.92300
C1325       C  0.32196465  0.00937279  0.24032323     1.01400
C1326       C  0.26275078  0.01508009  0.31409440     1.14400
C1327       C  0.27858384  0.92946415  0.23395503     1.05200
O1328       O  0.25766222  0.94415152  0.17234408    -0.94500
O1329       O  0.21915084  0.96603133  0.17075665    -0.90200
O1330       O  0.19891472  0.00076628  0.17151108    -0.83400
C1331       C  0.20666108  0.98200263  0.16096490     1.11800
O1332       O  0.21224677  0.94690361  0.29636527    -0.96400
Zr1333     Zr  0.20210336  0.97258332  0.26373888     1.88900
O1334       O  0.15994965  0.00397190  0.22275456    -0.73100
O1335       O  0.21958548  0.92500603  0.21177191    -0.52400
O1336       O  0.18837486  0.93253411  0.25681722    -0.97000
O1337       O  0.18007831  0.98315483  0.29924252    -0.54200
O1338       O  0.16198620  0.97552647  0.25062874    -0.73600
C1339       C  0.15057009  0.98844727  0.23627848     0.98700
O1340       O  0.17430962  0.04040254  0.18787606    -0.62400
O1341       O  0.24728520  0.07444155  0.27132224    -0.57200
O1342       O  0.20119504  0.05969918  0.21991178    -0.93900
O1343       O  0.19964235  0.06029971  0.25918025    -0.92300
O1344       O  0.28091275  0.06552869  0.21851927    -0.92700
O1345       O  0.26248077  0.04822362  0.17787722    -0.91500
C1346       C  0.19980317  0.07101632  0.23963581     1.17600
H1347       H  0.28176465  0.03089520  0.26135872     0.33500
H1348       H  0.23966061  0.00511067  0.17996689     0.44400
H1349       H  0.18383250  0.01941550  0.26052545     0.37900
H1350       H  0.23861969  0.94194361  0.25358012     0.34400
H1351       H  0.30623924  0.02516032  0.17719755     0.26200
H1352       H  0.20380420  0.92783173  0.20485459     0.32100
H1353       H  0.17414023  0.93101305  0.26686532     0.38000
H1354       H  0.28511564  0.06676481  0.23535440     0.32500
H1355       H  0.24002062  0.08137820  0.28565513     0.31400
H1356       H  0.21518066  0.05502925  0.31227030     0.33000
H1357       H  0.16463570  0.97519338  0.29756631     0.32000
H1358       H  0.24523168  0.05121009  0.17832939     0.36000
H1359       H  0.18352407  0.04378002  0.17345948     0.28700
H1360       H  0.31032891  0.95392253  0.28369496     0.33000
H1361       H  0.22295646  0.95638202  0.30636439     0.35800
H1362       H  0.26417280  0.07253530  0.27536353     0.28400
H1363       H  0.16159874  0.02967295  0.18263294     0.41300
H1364       H  0.26676849  0.95696277  0.16487484     0.31400
H1365       H  0.30267620  0.99857510  0.18343804     0.39000
H1366       H  0.17639840  0.00012584  0.29773154     0.30800
H1367       H  0.22749229  0.91415297  0.20051050     0.30900
H1368       H  0.28793363  0.94863756  0.29913332     0.31200
Zr1369     Zr  0.97182780  0.28551003  0.26153529     2.17500
O1370       O  0.94999413  0.31302730  0.28668216    -0.51200
O1371       O  0.98485105  0.32595773  0.25227278    -0.74400
O1372       O  0.98669383  0.28388508  0.30236608    -0.81200
O1373       O  0.92908254  0.28815276  0.21718238    -0.82900
O1374       O  0.02126611  0.26323440  0.30202797    -0.78600
O1375       O  0.92850136  0.28383161  0.25587667    -0.90200
O1376       O  0.01385640  0.32413222  0.22461943    -0.76200
O1377       O  0.01267799  0.28293134  0.25088478    -0.85700
O1378       O  0.97422191  0.28839230  0.21941438    -0.85300
O1379       O  0.98499820  0.24714662  0.27477023    -0.72100
O1380       O  0.94985030  0.25276129  0.24553785    -0.84200
Zr1381     Zr  0.00728866  0.21500420  0.20588854     2.26400
Zr1382     Zr  0.02592877  0.24515269  0.26364208     2.06300
Zr1383     Zr  0.95272372  0.25533166  0.20379775     2.10000
Zr1384     Zr  0.01467741  0.28514755  0.20900842     1.78800
O1385       O  0.91640647  0.23255803  0.20544918    -0.93000
O1386       O  0.05511116  0.29928903  0.21275567    -0.40800
O1387       O  0.99337910  0.25281086  0.19295272    -0.77500
O1388       O  0.02970873  0.24820712  0.22171379    -0.96200
O1389       O  0.00444110  0.21228981  0.24791297    -0.89500
O1390       O  0.96611160  0.21733051  0.21594716    -0.92300
C1391       C  0.00087349  0.33536548  0.23920110     1.01400
C1392       C  0.91760242  0.28566362  0.23616035     1.14400
C1393       C  0.00502596  0.27506986  0.31257690     1.05200
O1394       O  0.06303582  0.26634911  0.25948190    -0.94500
O1395       O  0.04647474  0.20915968  0.25285574    -0.90200
O1396       O  0.04949598  0.20899901  0.21386816    -0.83400
C1397       C  0.05904722  0.20829295  0.23425875     1.11800
O1398       O  0.93478184  0.21841757  0.28953916    -0.96400
Zr1399     Zr  0.96367012  0.21531468  0.25774571     1.88900
O1400       O  0.99425604  0.17434248  0.21376677    -0.73100
O1401       O  0.04430677  0.22844751  0.29850658    -0.52400
O1402       O  0.97829644  0.19306064  0.29125029    -0.97000
O1403       O  0.92357162  0.20126044  0.25109921    -0.54200
O1404       O  0.96865742  0.17589603  0.24454660    -0.73600
C1405       C  0.98035051  0.16474833  0.22887231     0.98700
O1406       O  0.02509500  0.18942651  0.17599921    -0.62400
O1407       O  0.93378316  0.27399447  0.17027086    -0.57200
O1408       O  0.99573335  0.22237028  0.16463587    -0.93900
O1409       O  0.95931590  0.23941874  0.16508338    -0.92300
O1410       O  0.99750406  0.30870098  0.17768541    -0.92700
O1411       O  0.03795486  0.28033633  0.17315739    -0.91500
C1412       C  0.97710663  0.23045652  0.15434915     1.17600
H1413       H  0.96817959  0.30332431  0.21394720     0.33500
H1414       H  0.04609473  0.24889096  0.21701294     0.44400
H1415       H  0.95719718  0.20503243  0.20829700     0.37900
H1416       H  0.98256133  0.24432113  0.29128210     0.34400
H1417       H  0.05551591  0.31411241  0.20367719     0.26200
H1418       H  0.03668326  0.21292241  0.30051716     0.32100
H1419       H  0.97663371  0.20365228  0.30506084     0.38000
H1420       H  0.98681118  0.29779032  0.16925661     0.32500
H1421       H  0.91661091  0.27279930  0.17340810     0.31400
H1422       H  0.91765425  0.22128509  0.19213620     0.33000
H1423       H  0.92424304  0.19240669  0.23605230     0.32000
H1424       H  0.02765016  0.27138942  0.16228863     0.36000
H1425       H  0.03855010  0.19845678  0.16956175     0.28700
H1426       H  0.96212435  0.32201825  0.29542605     0.33000
H1427       H  0.94043503  0.23147079  0.29964833     0.35800
H1428       H  0.93737472  0.29098389  0.17184700     0.28400
H1429       H  0.03249086  0.17631735  0.18474479     0.41300
H1430       H  0.07493581  0.25649588  0.26753684     0.31400
H1431       H  0.05652742  0.30443325  0.22936532     0.39000
H1432       H  0.91415664  0.21553253  0.24757756     0.30800
H1433       H  0.06081389  0.22477205  0.29402182     0.30900
H1434       H  0.94227999  0.30311516  0.29870918     0.31200
C1435       C  0.25311854  0.26865170  0.26541731     0.86600
C1436       C  0.25683109  0.27259777  0.23859161    -0.53600
C1437       C  0.24270973  0.25879371  0.22466702     0.09500
C1438       C  0.22692522  0.24227906  0.23840671     0.20500
C1439       C  0.22616880  0.27184176  0.26944696    -0.54300
C1440       C  0.21272236  0.25793111  0.25506938     0.09600
C1441       C  0.25717387  0.24172983  0.26867801    -0.53900
C1442       C  0.24338042  0.22810577  0.25413874     0.10200
H1443       H  0.26911878  0.28532711  0.23142944     0.14700
H1444       H  0.21564762  0.23101496  0.22699963     0.00500
H1445       H  0.21856309  0.28389962  0.28233036     0.15000
H1446       H  0.26960058  0.23427227  0.28109389     0.14800
C1447       C  0.62282438  0.13228339  0.10629501    -0.02400
C1448       C  0.62119428  0.63419857  0.60597802    -0.02400
C1449       C  0.15453347  0.23963253  0.26032095     0.29900
C1450       C  0.13614500  0.22593114  0.26958285    -0.36400
C1451       C  0.11761696  0.22051702  0.25408217     0.15900
C1452       C  0.11716391  0.22804731  0.23107494     0.21700
C1453       C  0.13554472  0.24166438  0.22181792    -0.34600
C1454       C  0.15392290  0.24722679  0.23734462     0.15800
O1455       O  0.17459191  0.24499921  0.27091254    -0.26600
C1456       C  0.18678267  0.25654415  0.25459285     0.05600
C1457       C  0.17465908  0.25847050  0.23346177    -0.31500
O1458       O  0.09730309  0.22257232  0.22027548    -0.23300
C1459       C  0.08477652  0.21134265  0.23654450    -0.03300
C1460       C  0.09674985  0.20926810  0.25781011    -0.17700
H1461       H  0.13630934  0.21982465  0.28756670     0.20300
H1462       H  0.13545316  0.24766733  0.20379531     0.18600
H1463       H  0.18132935  0.26487616  0.21683958     0.18600
H1464       H  0.09023944  0.20222020  0.27420749     0.14500
C1465       C  0.21617330  0.13013685  0.23308296     0.29900
C1466       C  0.22692890  0.14942747  0.22207997    -0.36400
C1467       C  0.23299487  0.16848234  0.23679654     0.15900
C1468       C  0.22874475  0.16872566  0.26070224     0.21700
C1469       C  0.21780360  0.14952087  0.27166539    -0.34600
C1470       C  0.21163935  0.13053083  0.25693397     0.15800
O1471       O  0.21072299  0.10971327  0.22310017    -0.26600
C1472       C  0.20231285  0.09692061  0.24078838     0.05600
C1473       C  0.20220966  0.10921973  0.26212929    -0.31500
O1474       O  0.23428244  0.18909307  0.27073738    -0.23300
C1475       C  0.24241116  0.20205052  0.25304261    -0.03300
C1476       C  0.24197856  0.19001556  0.23158810    -0.17700
H1477       H  0.23043575  0.14954935  0.20335956     0.20300
H1478       H  0.21419160  0.14943162  0.29036816     0.18600
H1479       H  0.19784115  0.10261768  0.27941803     0.18600
H1480       H  0.24567545  0.19697709  0.21428802     0.14500
C1481       C  0.24622430  0.23639675  0.12298221     0.29900
C1482       C  0.26169862  0.24204459  0.14145047    -0.36400
C1483       C  0.25119649  0.24932060  0.16268145     0.15900
C1484       C  0.22704217  0.25041011  0.16566296     0.21700
C1485       C  0.21149132  0.24489732  0.14710454    -0.34600
C1486       C  0.22205089  0.23795382  0.12567891     0.15800
O1487       O  0.25251061  0.23060728  0.10138042    -0.26600
C1488       C  0.23222310  0.22845835  0.08975512     0.05600
C1489       C  0.21254597  0.23271504  0.10406934    -0.31500
O1490       O  0.22105628  0.25565741  0.18753142    -0.23300
C1491       C  0.24159586  0.25848940  0.19864660    -0.03300
C1492       C  0.26099336  0.25490306  0.18396805    -0.17700
H1493       H  0.28068007  0.24096454  0.13933330     0.20300
H1494       H  0.19250612  0.24587275  0.14927036     0.18600
H1495       H  0.19414217  0.23330749  0.09899834     0.18600
H1496       H  0.27946804  0.25434038  0.18877364     0.14500
C1497       C  0.98473820  0.25747883  0.05490232     0.29900
C1498       C  0.99865135  0.24641484  0.07202686    -0.36400
C1499       C  0.98712440  0.24078626  0.09309560     0.15900
C1500       C  0.96353043  0.24573283  0.09688114     0.21700
C1501       C  0.94963162  0.25678011  0.07976027    -0.34600
C1502       C  0.96120589  0.26259221  0.05880166     0.15800
O1503       O  0.99153140  0.26283255  0.03348001    -0.26600
C1504       C  0.97224301  0.27175945  0.02352590     0.05600
C1505       C  0.95281574  0.27227362  0.03856137    -0.31500
O1506       O  0.95674365  0.24070791  0.11837113    -0.23300
C1507       C  0.97613840  0.23237294  0.12862922    -0.03300
C1508       C  0.99563058  0.23177909  0.11364599    -0.17700
H1509       H  0.01716487  0.24249967  0.06910858     0.20300
H1510       H  0.93115169  0.26082890  0.08272000     0.18600
H1511       H  0.93474250  0.27696639  0.03448764     0.18600
H1512       H  0.01375807  0.22746036  0.11788508     0.14500
C1513       C  0.05675141  0.25842238  0.95361555     0.29900
C1514       C  0.07601940  0.24745220  0.94204171    -0.36400
C1515       C  0.09567521  0.24168483  0.95617151     0.15900
C1516       C  0.09623784  0.24616040  0.98003355     0.21700
C1517       C  0.07724337  0.25741377  0.99143888    -0.34600
C1518       C  0.05787311  0.26348888  0.97732388     0.15800
O1519       O  0.03566644  0.26334814  0.94458246    -0.26600
C1520       C  0.02334563  0.27217615  0.96273180     0.05600
C1521       C  0.03656406  0.27283123  0.98335273    -0.31500
O1522       O  0.11666487  0.24044318  0.98972350    -0.23300
C1523       C  0.12968226  0.23223573  0.97190028    -0.03300
C1524       C  0.11742333  0.23260561  0.95057153    -0.17700
H1525       H  0.07565490  0.24349626  0.92340098     0.20300
H1526       H  0.07755508  0.26124214  0.01010780     0.18600
H1527       H  0.03041348  0.27716253  0.00091654     0.18600
H1528       H  0.12422515  0.22858168  0.93317685     0.14500
C1529       C  0.97256290  0.06088898  0.23260834     0.29900
C1530       C  0.98374904  0.07788261  0.21863059    -0.36400
C1531       C  0.97925600  0.10140982  0.22479187     0.15900
C1532       C  0.96467719  0.10747128  0.24338271     0.21700
C1533       C  0.95358463  0.09050754  0.25735833    -0.34600
C1534       C  0.95811929  0.06704562  0.25124943     0.15800
O1535       O  0.97441801  0.03799501  0.23003989    -0.26600
C1536       C  0.96104944  0.02924244  0.24718601     0.05600
C1537       C  0.95042307  0.04654996  0.26106643    -0.31500
O1538       O  0.96315016  0.13028728  0.24645685    -0.23300
C1539       C  0.97692784  0.13919580  0.22976516    -0.03300
C1540       C  0.98750430  0.12206158  0.21558148    -0.17700
H1541       H  0.99523746  0.07305920  0.20410438     0.20300
H1542       H  0.94234110  0.09531983  0.27207515     0.18600
H1543       H  0.93889859  0.04441311  0.27611570     0.18600
H1544       H  0.99969350  0.12442660  0.20108974     0.14500
C1545       C  0.04616053  0.98343079  0.23645089     0.29900
C1546       C  0.06420219  0.99637488  0.22568193    -0.36400
C1547       C  0.08728183  0.98930214  0.23082412     0.15900
C1548       C  0.09215184  0.97064814  0.24546899     0.21700
C1549       C  0.07401148  0.95753188  0.25608856    -0.34600
C1550       C  0.05084296  0.96476747  0.25110726     0.15800
O1551       O  0.02351044  0.98766209  0.23453033    -0.26600
C1552       C  0.01320993  0.97166742  0.24809970     0.05600
C1553       C  0.02938182  0.95679213  0.25898483    -0.31500
O1554       O  0.11497367  0.96779144  0.24875719    -0.23300
C1555       C  0.12487494  0.98477720  0.23606736    -0.03300
C1556       C  0.10848661  0.99869765  0.22439079    -0.17700
H1557       H  0.06045871  0.01125313  0.21447387     0.20300
H1558       H  0.07773995  0.94307696  0.26782486     0.18600
H1559       H  0.02591009  0.94242326  0.27088709     0.18600
H1560       H  0.11168151  0.01391949  0.21349237     0.14500
C1561       C  0.97638670  0.18458434  0.98655720     0.29900
C1562       C  0.98954522  0.16613098  0.99646879    -0.36400
C1563       C  0.97830082  0.14420729  0.99751404     0.15900
C1564       C  0.95564580  0.14082901  0.98932971     0.21700
C1565       C  0.94234614  0.15941521  0.97978349    -0.34600
C1566       C  0.95366978  0.18130531  0.97857201     0.15800
O1567       O  0.98371035  0.20627904  0.98352028    -0.26600
C1568       C  0.96560134  0.21722977  0.97335049     0.05600
C1569       C  0.94630585  0.20250786  0.96979261    -0.31500
O1570       O  0.94953132  0.11849570  0.98946083    -0.23300
C1571       C  0.96834051  0.10732683  0.99804195    -0.03300
C1572       C  0.98676559  0.12249806  0.00363832    -0.17700
H1573       H  0.00755591  0.16856587  0.00230656     0.20300
H1574       H  0.92472897  0.15675327  0.97295754     0.18600
H1575       H  0.92924086  0.20688627  0.96246657     0.18600
H1576       H  0.00449656  0.11796145  0.00911387     0.14500
C1577       C  0.95149838  0.99190310  0.12018968     0.29900
C1578       C  0.93604415  0.98392944  0.13786671    -0.36400
C1579       C  0.94652349  0.97786327  0.15935154     0.15900
C1580       C  0.97055318  0.97949008  0.16286601     0.21700
C1581       C  0.98595186  0.98736598  0.14523317    -0.34600
C1582       C  0.97547731  0.99367737  0.12393850     0.15800
O1583       O  0.94562039  0.99784452  0.09865229    -0.26600
C1584       C  0.96601043  0.00381643  0.08853135     0.05600
C1585       C  0.98524421  0.00167298  0.10350280    -0.31500
O1586       O  0.97649947  0.97520470  0.18467348    -0.23300
C1587       C  0.95618339  0.97074506  0.19557751    -0.03300
C1588       C  0.93678825  0.97183560  0.18061205    -0.17700
H1589       H  0.91716248  0.98288759  0.13514939     0.20300
H1590       H  0.00475273  0.98904914  0.14817471     0.18600
H1591       H  0.00377014  0.00413736  0.09947219     0.18600
H1592       H  0.91824982  0.97084425  0.18520473     0.14500
C1593       C  0.22588299  0.06430960  0.98687074     0.29900
C1594       C  0.21499999  0.08329069  0.99876716    -0.36400
C1595       C  0.22167043  0.10585338  0.99147144     0.15900
C1596       C  0.23797260  0.10924368  0.97374241     0.21700
C1597       C  0.24890721  0.09030576  0.96195399    -0.34600
C1598       C  0.24224282  0.06780233  0.96923233     0.15800
O1599       O  0.22160668  0.04185545  0.99024378    -0.26600
C1600       C  0.23538561  0.03071686  0.97464876     0.05600
C1601       C  0.24879812  0.04601342  0.96112402    -0.31500
O1602       O  0.24182935  0.13161981  0.96975777    -0.23300
C1603       C  0.22788252  0.14292172  0.98504642    -0.03300
C1604       C  0.21478885  0.12780059  0.99909698    -0.17700
H1605       H  0.20210091  0.08062307  0.01257833     0.20300
H1606       H  0.26163518  0.09297119  0.94798466     0.18600
H1607       H  0.26090360  0.04180387  0.94692217     0.18600
H1608       H  0.20244764  0.13227748  0.01302141     0.14500
C1609       C  0.14375403  0.98974906  0.98109070     0.29900
C1610       C  0.12653876  0.99607372  0.99777986    -0.36400
C1611       C  0.10751852  0.00941011  0.98949960     0.15900
C1612       C  0.10530223  0.01576760  0.96626047     0.21700
C1613       C  0.12249439  0.00921447  0.94942180    -0.34600
C1614       C  0.14180409  0.99604770  0.95779629     0.15800
O1615       O  0.16422903  0.97997099  0.98584567    -0.26600
C1616       C  0.17576579  0.97964561  0.96542452     0.05600
C1617       C  0.16259896  0.98931841  0.94717965    -0.31500
O1618       O  0.08561753  0.02767542  0.96236822    -0.23300
C1619       C  0.07528188  0.02920109  0.98346444    -0.03300
C1620       C  0.08821456  0.01815662  0.00099452    -0.17700
H1621       H  0.12829284  0.99157940  0.01615907     0.20300
H1622       H  0.12115347  0.01444560  0.93121133     0.18600
H1623       H  0.16852300  0.99341422  0.92956619     0.18600
H1624       H  0.08330828  0.01554045  0.01920545     0.14500
C1625       C  0.21088901  0.96482198  0.10197475     0.29900
C1626       C  0.21952775  0.95067405  0.08335740    -0.36400
C1627       C  0.21989686  0.96114708  0.06105190     0.15900
C1628       C  0.21193192  0.98382017  0.05750976     0.21700
C1629       C  0.20313294  0.99784041  0.07600277    -0.34600
C1630       C  0.20297779  0.98749663  0.09826884     0.15800
O1631       O  0.21138594  0.95952304  0.12447810    -0.26600
C1632       C  0.20359384  0.97894971  0.13539327     0.05600
C1633       C  0.19792233  0.99693652  0.11989326    -0.31500
O1634       O  0.21414178  0.99041485  0.03555601    -0.23300
C1635       C  0.22378247  0.97192289  0.02462045    -0.03300
C1636       C  0.22786869  0.95304575  0.03963557    -0.17700
H1637       H  0.22628102  0.93307206  0.08623979     0.20300
H1638       H  0.19746883  0.01584598  0.07329043     0.18600
H1639       H  0.19295401  0.01493089  0.12403583     0.18600
H1640       H  0.23524216  0.93591265  0.03538955     0.14500
C1641       C  0.99698186  0.25765254  0.41410681     0.29900
C1642       C  0.98381837  0.26823522  0.39613987    -0.36400
C1643       C  0.99566115  0.27150157  0.37474134     0.15900
C1644       C  0.01888323  0.26479472  0.37134773     0.21700
C1645       C  0.03215051  0.25447928  0.38947121    -0.34600
C1646       C  0.02022977  0.25102656  0.41084415     0.15800
O1647       O  0.98925905  0.25289615  0.43534837    -0.26600
C1648       C  0.00763487  0.24290826  0.44597567     0.05600
C1649       C  0.02749692  0.24120367  0.43153958    -0.31500
O1650       O  0.02567792  0.26710526  0.34931010    -0.23300
C1651       C  0.00669746  0.27562092  0.33840781    -0.03300
C1652       C  0.98749585  0.27889424  0.35345510    -0.17700
H1653       H  0.96543225  0.27303287  0.39852245     0.20300
H1654       H  0.05024722  0.24880898  0.38681799     0.18600
H1655       H  0.04489011  0.23461617  0.43591059     0.18600
H1656       H  0.96956000  0.28369790  0.34892247     0.14500
C1657       C  0.00650941  0.36306963  0.47848611     0.29900
C1658       C  0.02233021  0.34558133  0.48597120    -0.36400
C1659       C  0.01209621  0.32500006  0.49472314     0.15900
C1660       C  0.98796220  0.32189856  0.49576394     0.21700
C1661       C  0.97215851  0.33929157  0.48812217    -0.34600
C1662       C  0.98238173  0.35985446  0.47935679     0.15800
O1663       O  0.01221421  0.38446285  0.47198023    -0.26600
C1664       C  0.99155440  0.39508322  0.46831429     0.05600
C1665       C  0.97229905  0.38049851  0.47233334    -0.31500
O1666       O  0.98218783  0.30059230  0.50235925    -0.23300
C1667       C  0.00278165  0.28984302  0.50581566    -0.03300
C1668       C  0.02210885  0.30424585  0.50155847    -0.17700
H1669       H  0.04127769  0.34796269  0.48520276     0.20300
H1670       H  0.95321473  0.33685291  0.48881152     0.18600
H1671       H  0.95374996  0.38521639  0.47271630     0.18600
H1672       H  0.04058240  0.29928510  0.50071790     0.14500
C1673       C  0.99650351  0.51666504  0.30378523     0.29900
C1674       C  0.98120218  0.50729307  0.32077358    -0.36400
C1675       C  0.99168393  0.50011223  0.34184331     0.15900
C1676       C  0.01555569  0.50234058  0.34600664     0.21700
C1677       C  0.03090163  0.51165841  0.32894394    -0.34600
C1678       C  0.02041242  0.51878017  0.30779416     0.15800
O1679       O  0.99068130  0.52245415  0.28221952    -0.26600
C1680       C  0.01100543  0.52859149  0.27214873     0.05600
C1681       C  0.03015728  0.52687099  0.28733306    -0.31500
O1682       O  0.02125197  0.49636662  0.36762353    -0.23300
C1683       C  0.00084371  0.48988389  0.37739024    -0.03300
C1684       C  0.98185484  0.49165353  0.36203328    -0.17700
H1685       H  0.96243719  0.50551916  0.31766883     0.20300
H1686       H  0.04968460  0.51331839  0.33199179     0.18600
H1687       H  0.04871399  0.52881947  0.28316822     0.18600
H1688       H  0.96327827  0.48930414  0.36589978     0.14500
C1689       C  0.00331431  0.43899248  0.23308304     0.29900
C1690       C  0.99024659  0.42145055  0.24435152    -0.36400
C1691       C  0.99877383  0.39845932  0.24174628     0.15900
C1692       C  0.01871808  0.39315459  0.22870919     0.21700
C1693       C  0.03191890  0.41079393  0.21746604    -0.34600
C1694       C  0.02339630  0.43390110  0.22019277     0.15800
O1695       O  0.99839602  0.46154105  0.23352984    -0.26600
C1696       C  0.01544865  0.47134180  0.22085206     0.05600
C1697       C  0.03161865  0.45496284  0.21193428    -0.31500
O1698       O  0.02250533  0.37032834  0.22724568    -0.23300
C1699       C  0.00485812  0.36090370  0.23956945    -0.03300
C1700       C  0.98963518  0.37760268  0.24923737    -0.17700
H1701       H  0.97436304  0.42547269  0.25426972     0.20300
H1702       H  0.04747748  0.40672839  0.20705908     0.18600
H1703       H  0.04720219  0.45808344  0.20134754     0.18600
H1704       H  0.97346487  0.37474720  0.25900188     0.14500
C1705       C  0.57139150  0.06648480  0.17317820     0.29900
C1706       C  0.59470578  0.07165827  0.16560212    -0.36400
C1707       C  0.59730129  0.09033243  0.14934530     0.15900
C1708       C  0.57826196  0.10291345  0.14104464     0.21700
C1709       C  0.55514381  0.09794245  0.14880440    -0.34600
C1710       C  0.55257033  0.07939670  0.16497788     0.15800
O1711       O  0.56466117  0.04971351  0.18806579    -0.26600
C1712       C  0.54106315  0.05184478  0.18951850     0.05600
C1713       C  0.53284069  0.07022137  0.17535723    -0.31500
O1714       O  0.58435372  0.11900409  0.12535535    -0.23300
C1715       C  0.60784355  0.11716269  0.12341112    -0.03300
C1716       C  0.61678556  0.09955854  0.13819799    -0.17700
H1717       H  0.60976680  0.06169810  0.17178309     0.20300
H1718       H  0.54006380  0.10775385  0.14244119     0.18600
H1719       H  0.51493458  0.07629902  0.17282963     0.18600
H1720       H  0.63500736  0.09403868  0.14001138     0.14500
C1721       C  0.37985617  0.02561440  0.22629320     0.29900
C1722       C  0.39730084  0.03680159  0.21271438    -0.36400
C1723       C  0.42081970  0.03157951  0.21846359     0.15900
C1724       C  0.42649624  0.01635828  0.23635813     0.21700
C1725       C  0.40908572  0.00520121  0.24995726    -0.34600
C1726       C  0.38560299  0.01042655  0.24422122     0.15800
O1727       O  0.35691259  0.02738383  0.22329402    -0.26600
C1728       C  0.34767992  0.01317776  0.23942709     0.05600
C1729       C  0.36472397  0.00214101  0.25312575    -0.31500
O1730       O  0.44938469  0.01341845  0.23844749    -0.23300
C1731       C  0.45882930  0.02687624  0.22178973    -0.03300
C1732       C  0.44181095  0.03873903  0.20870384    -0.17700
H1733       H  0.39279866  0.04848541  0.19844671     0.20300
H1734       H  0.41358651  0.99302892  0.26381845     0.18600
H1735       H  0.36215924  0.98948099  0.26703726     0.18600
H1736       H  0.44442831  0.05038356  0.19395145     0.14500
C1737       C  0.52475733  0.00711645  0.34891653     0.29900
C1738       C  0.53747531  0.01905370  0.33127819    -0.36400
C1739       C  0.52810388  0.01776909  0.30842970     0.15900
C1740       C  0.50778201  0.00539011  0.30362768     0.21700
C1741       C  0.49524489  0.99336348  0.32108044    -0.34600
C1742       C  0.50446206  0.99477644  0.34379496     0.15800
O1743       O  0.52930315  0.00734222  0.37163856    -0.26600
C1744       C  0.51173630  0.99498372  0.38116575     0.05600
C1745       C  0.49576391  0.98664352  0.36460738    -0.31500
O1746       O  0.50181803  0.00648856  0.28146656    -0.23300
C1747       C  0.51835234  0.01969485  0.27145728    -0.03300
C1748       C  0.53534008  0.02738589  0.28745262    -0.17700
H1749       H  0.55321684  0.02906288  0.33521721     0.20300
H1750       H  0.47911546  0.98393291  0.31723592     0.18600
H1751       H  0.47948082  0.97716862  0.36759401     0.18600
H1752       H  0.55075478  0.03807882  0.28412467     0.14500
C1753       C  0.47417683  0.19009147  0.47486120     0.29900
C1754       C  0.48764091  0.17133100  0.46587459    -0.36400
C1755       C  0.49055169  0.15203703  0.48082743     0.15900
C1756       C  0.48075594  0.15096869  0.50305655     0.21700
C1757       C  0.46746221  0.16988860  0.51216776    -0.34600
C1758       C  0.46463832  0.18929077  0.49722000     0.15800
O1759       O  0.47062454  0.21052467  0.46452052    -0.26600
C1760       C  0.45847319  0.22293763  0.48038384     0.05600
C1761       C  0.45437271  0.21065077  0.50107589    -0.31500
O1762       O  0.48417181  0.13029326  0.51312266    -0.23300
C1763       C  0.49648711  0.11812958  0.49712107    -0.03300
C1764       C  0.50112193  0.13094881  0.47686323    -0.17700
H1765       H  0.49540119  0.17176955  0.44845906     0.20300
H1766       H  0.45974051  0.16947477  0.52959830     0.18600
H1767       H  0.44677685  0.21729878  0.51733194     0.18600
H1768       H  0.50935303  0.12484689  0.46070123     0.14500
C1769       C  0.40129993  0.31450563  0.43318073     0.29900
C1770       C  0.37766273  0.31833669  0.42617958    -0.36400
C1771       C  0.37402449  0.33469840  0.40794040     0.15900
C1772       C  0.39240855  0.34626709  0.39717104     0.21700
C1773       C  0.41599500  0.34244749  0.40419731    -0.34600
C1774       C  0.41963340  0.32627162  0.42254811     0.15800
O1775       O  0.40870725  0.30014668  0.44992213    -0.26600
C1776       C  0.43220703  0.30266631  0.45023569     0.05600
C1777       C  0.43990625  0.31881963  0.43344741    -0.31500
O1778       O  0.38516402  0.36055851  0.38031329    -0.23300
C1779       C  0.36165177  0.35828531  0.37996715    -0.03300
C1780       C  0.35381847  0.34252995  0.39717452    -0.17700
H1781       H  0.36310205  0.30922173  0.43442809     0.20300
H1782       H  0.43055360  0.35152144  0.39591231     0.18600
H1783       H  0.45776646  0.32434108  0.42966395     0.18600
H1784       H  0.33581397  0.33735695  0.40089986     0.14500
C1785       C  0.30803023  0.34202159  0.32031950     0.29900
C1786       C  0.29050392  0.34037140  0.30273577    -0.36400
C1787       C  0.28338185  0.31743356  0.29603045     0.15900
C1788       C  0.29285035  0.29741176  0.30587456     0.21700
C1789       C  0.31032207  0.29909932  0.32348451    -0.34600
C1790       C  0.31742543  0.32202136  0.33017134     0.15800
O1791       O  0.31691870  0.36164157  0.32958154    -0.26600
C1792       C  0.33222517  0.35432875  0.34594787     0.05600
C1793       C  0.33333697  0.32962700  0.34662347    -0.31500
O1794       O  0.28378471  0.27773859  0.29685837    -0.23300
C1795       C  0.26815169  0.28511967  0.28089704    -0.03300
C1796       C  0.26720713  0.30973084  0.27982224    -0.17700
H1797       H  0.28284934  0.35592226  0.29487088     0.20300
H1798       H  0.31784983  0.28357304  0.33150951     0.18600
H1799       H  0.34399152  0.31857411  0.35781308     0.18600
H1800       H  0.25623542  0.32039118  0.26851034     0.14500
C1801       C  0.37673712  0.41930191  0.33410537     0.29900
C1802       C  0.38277375  0.44296499  0.32943309    -0.36400
C1803       C  0.40178386  0.44674603  0.31371099     0.15900
C1804       C  0.41407596  0.42851352  0.30321279     0.21700
C1805       C  0.40806594  0.40481385  0.30790833    -0.34600
C1806       C  0.38902882  0.40103538  0.32363436     0.15800
O1807       O  0.35980421  0.41184110  0.34849007    -0.26600
C1808       C  0.36106655  0.38828053  0.34743156     0.05600
C1809       C  0.37900177  0.38073310  0.33202148    -0.31500
O1810       O  0.43098704  0.43608198  0.28883783    -0.23300
C1811       C  0.42972379  0.45965110  0.29001173    -0.03300
C1812       C  0.41174262  0.46710301  0.30539820    -0.17700
H1813       H  0.37328538  0.45749791  0.33754291     0.20300
H1814       H  0.41757166  0.39027592  0.29982332     0.18600
H1815       H  0.38419639  0.36277851  0.32801146     0.18600
H1816       H  0.40633443  0.48490163  0.30969046     0.14500
C1817       C  0.47205539  0.49549920  0.17595671     0.29900
C1818       C  0.48558953  0.50612380  0.15833822    -0.36400
C1819       C  0.47700293  0.50380949  0.13546188     0.15900
C1820       C  0.45660838  0.49162368  0.13031380     0.21700
C1821       C  0.44300205  0.48098719  0.14804478    -0.34600
C1822       C  0.45153525  0.48345542  0.17106605     0.15800
O1823       O  0.47653404  0.49642556  0.19848254    -0.26600
C1824       C  0.45875215  0.48495211  0.20851510     0.05600
C1825       C  0.44256806  0.47625785  0.19227420    -0.31500
O1826       O  0.45228413  0.49105849  0.10760239    -0.23300
C1827       C  0.46999868  0.50319882  0.09815021    -0.03300
C1828       C  0.48591716  0.51164884  0.11466382    -0.17700
H1829       H  0.50161779  0.51569206  0.16226496     0.20300
H1830       H  0.42690847  0.47153168  0.14414851     0.18600
H1831       H  0.42625418  0.46697880  0.19561163     0.18600
H1832       H  0.50208239  0.52132314  0.11169556     0.14500
C1833       C  0.14246640  0.49157972  0.48007844     0.29900
C1834       C  0.12587895  0.49789851  0.49745139    -0.36400
C1835       C  0.10808423  0.51363892  0.49059206     0.15900
C1836       C  0.10649641  0.52231089  0.46807088     0.21700
C1837       C  0.12315689  0.51600148  0.45066886    -0.34600
C1838       C  0.14108985  0.50031819  0.45757270     0.15800
O1839       O  0.16203595  0.47955277  0.48360250    -0.26600
C1840       C  0.17346766  0.48023243  0.46310119     0.05600
C1841       C  0.16111530  0.49283477  0.44614542    -0.31500
O1842       O  0.08748781  0.53551717  0.46510848    -0.23300
C1843       C  0.07687560  0.53558762  0.48609508    -0.03300
C1844       C  0.08910322  0.52239335  0.50268343    -0.17700
H1845       H  0.12710366  0.49140785  0.51525886     0.20300
H1846       H  0.12230174  0.52299008  0.43303670     0.18600
H1847       H  0.16748080  0.49849835  0.42913769     0.18600
H1848       H  0.08363300  0.51805763  0.52038851     0.14500
C1849       C  0.31470912  0.41141888  0.40192687     0.29900
C1850       C  0.31264899  0.42910259  0.41937489    -0.36400
C1851       C  0.28953099  0.43624238  0.42554904     0.15900
C1852       C  0.26969214  0.42669930  0.41529276     0.21700
C1853       C  0.27175145  0.40884293  0.39800665    -0.34600
C1854       C  0.29490167  0.40168721  0.39186497     0.15800
O1855       O  0.33461785  0.40242444  0.39323161    -0.26600
C1856       C  0.32770929  0.38652467  0.37720989     0.05600
C1857       C  0.30296425  0.38532271  0.37594700    -0.31500
O1858       O  0.24981602  0.43610914  0.42364173    -0.23300
C1859       C  0.25695308  0.45191301  0.43961135    -0.03300
C1860       C  0.28153236  0.45263768  0.44146076    -0.17700
H1861       H  0.32803827  0.43686119  0.42752754     0.20300
H1862       H  0.25636205  0.40111260  0.38982052     0.18600
H1863       H  0.29220350  0.37410889  0.36493698     0.18600
H1864       H  0.29196293  0.46370447  0.45296404     0.14500
C1865       C  0.97556985  0.68982777  0.48437242     0.29900
C1866       C  0.99025208  0.67166411  0.49244343    -0.36400
C1867       C  0.97927587  0.65000925  0.49635954     0.15900
C1868       C  0.95551803  0.64655182  0.49233856     0.21700
C1869       C  0.94079294  0.66480600  0.48438958    -0.34600
C1870       C  0.95177659  0.68650643  0.48050507     0.15800
O1871       O  0.98206084  0.71160608  0.48063269    -0.26600
C1872       C  0.96231058  0.72255088  0.47420317     0.05600
C1873       C  0.94278731  0.70777357  0.47359382    -0.31500
O1874       O  0.94938237  0.62443280  0.49494427    -0.23300
C1875       C  0.96933264  0.61355443  0.50097755    -0.03300
C1876       C  0.98855064  0.62865529  0.50238314    -0.17700
H1877       H  0.00895785  0.67424312  0.49533266     0.20300
H1878       H  0.92217375  0.66213528  0.48109599     0.18600
H1879       H  0.92454211  0.71234942  0.47020134     0.18600
H1880       H  0.00694801  0.62416418  0.50504982     0.14500
C1881       C  0.62117650  0.02656067  0.47850527     0.29900
C1882       C  0.63912250  0.02009995  0.46251714    -0.36400
C1883       C  0.65855621  0.00803419  0.47199233     0.15900
C1884       C  0.66017486  0.00287793  0.49560408     0.21700
C1885       C  0.64219012  0.00913988  0.51152050    -0.34600
C1886       C  0.62285732  0.02124821  0.50206897     0.15800
O1887       O  0.60096747  0.03692304  0.47332038    -0.26600
C1888       C  0.58961284  0.03844134  0.49385880     0.05600
C1889       C  0.60251996  0.02909939  0.51239609    -0.31500
O1890       O  0.68085521  0.99395039  0.50119482    -0.23300
C1891       C  0.69263092  0.99293064  0.48091835    -0.03300
C1892       C  0.67957971  0.00132328  0.46204449    -0.17700
H1893       H  0.63809930  0.02438004  0.44403392     0.20300
H1894       H  0.64344385  0.00529386  0.53009173     0.18600
H1895       H  0.59695839  0.02676060  0.53046094     0.18600
H1896       H  0.68565388  0.00456381  0.44429603     0.14500
C1897       C  0.90228652  0.93145485  0.29314614     0.29900
C1898       C  0.88204590  0.91731747  0.29512117    -0.36400
C1899       C  0.87614031  0.90966722  0.31784545     0.15900
C1900       C  0.88902302  0.91568244  0.33746554     0.21700
C1901       C  0.90905882  0.93031317  0.33558561    -0.34600
C1902       C  0.91513130  0.93782531  0.31272430     0.15800
O1903       O  0.91143992  0.93961838  0.27338848    -0.26600
C1904       C  0.93048565  0.95159434  0.28017535     0.05600
C1905       C  0.93350904  0.95120069  0.30457484    -0.31500
O1906       O  0.88063017  0.90585396  0.35686219    -0.23300
C1907       C  0.86209514  0.89316637  0.34962282    -0.03300
C1908       C  0.85854190  0.89519665  0.32537778    -0.17700
H1909       H  0.87185690  0.91219035  0.27986800     0.20300
H1910       H  0.91945534  0.93511860  0.35080463     0.18600
H1911       H  0.94743939  0.95933340  0.31473572     0.18600
H1912       H  0.84494763  0.88720932  0.31467589     0.14500
C1913       C  0.91785418  0.81790470  0.41789766     0.29900
C1914       C  0.91001166  0.82248079  0.39478828    -0.36400
C1915       C  0.89135275  0.83892341  0.39240769     0.15900
C1916       C  0.88120095  0.85023129  0.41144139     0.21700
C1917       C  0.88910816  0.84575388  0.43450285    -0.34600
C1918       C  0.90767155  0.82926340  0.43687033     0.15800
O1919       O  0.93463762  0.80279442  0.42423116    -0.26600
C1920       C  0.93542183  0.80439200  0.44771622     0.05600
C1921       C  0.91889634  0.82079312  0.45637648    -0.31500
O1922       O  0.86419012  0.86508440  0.40526416    -0.23300
C1923       C  0.86309922  0.86339202  0.38179174    -0.03300
C1924       C  0.87976563  0.84724400  0.37296093    -0.17700
H1925       H  0.91782720  0.81370626  0.37968388     0.20300
H1926       H  0.88125090  0.85448386  0.44961742     0.18600
H1927       H  0.91511549  0.82567211  0.47440258     0.18600
H1928       H  0.88319472  0.84270555  0.35474924     0.14500
C1929       C  0.79669342  0.95205698  0.42763248     0.29900
C1930       C  0.81250339  0.95070865  0.40838702    -0.36400
C1931       C  0.81872637  0.92789947  0.40033802     0.15900
C1932       C  0.81013301  0.90772688  0.41050782     0.21700
C1933       C  0.79425875  0.90905742  0.42967336    -0.34600
C1934       C  0.78792305  0.93184792  0.43764842     0.15800
O1935       O  0.78835121  0.97152825  0.43790336    -0.26600
C1936       C  0.77387488  0.96376158  0.45478419     0.05600
C1937       C  0.77296665  0.93916954  0.45523848    -0.31500
O1938       O  0.81837891  0.88825266  0.40024540    -0.23300
C1939       C  0.83257874  0.89584108  0.38303690    -0.03300
C1940       C  0.83324448  0.92055154  0.38241210    -0.17700
H1941       H  0.81944195  0.96637552  0.40017490     0.20300
H1942       H  0.78725042  0.89337585  0.43779689     0.18600
H1943       H  0.76258479  0.92827022  0.46685732     0.18600
H1944       H  0.84302785  0.93169040  0.37052320     0.14500
C1945       C  0.77449123  0.82690077  0.30642618     0.29900
C1946       C  0.77547738  0.84489225  0.32375487    -0.36400
C1947       C  0.79786237  0.84970080  0.33364855     0.15900
C1948       C  0.81798672  0.83773143  0.32690127     0.21700
C1949       C  0.81702510  0.81977749  0.30952101    -0.34600
C1950       C  0.79463135  0.81493837  0.29963358     0.15800
O1951       O  0.75540061  0.81952293  0.29499462    -0.26600
C1952       C  0.76323314  0.80254033  0.28042137     0.05600
C1953       C  0.78762894  0.79907495  0.28264590    -0.31500
O1954       O  0.83715873  0.84555678  0.33788126    -0.23300
C1955       C  0.82945013  0.86284488  0.35220098    -0.03300
C1956       C  0.80493383  0.86604145  0.35010593    -0.17700
H1957       H  0.75983422  0.85458290  0.32911042     0.20300
H1958       H  0.83273172  0.81031674  0.30394501     0.18600
H1959       H  0.79857419  0.78648079  0.27321684     0.18600
H1960       H  0.79393757  0.87916493  0.35870940     0.14500
C1961       C  0.58869516  0.25908018  0.50348816     0.29900
C1962       C  0.56686078  0.24748491  0.50187049    -0.36400
C1963       C  0.54748267  0.26128846  0.49466419     0.15900
C1964       C  0.54919388  0.28491274  0.48942944     0.21700
C1965       C  0.57098213  0.29654219  0.49121580    -0.34600
C1966       C  0.59035457  0.28274713  0.49840964     0.15800
O1967       O  0.60948475  0.24935650  0.50839282    -0.26600
C1968       C  0.62466978  0.26714514  0.50653622     0.05600
C1969       C  0.61355947  0.28826996  0.50051712    -0.31500
O1970       O  0.52864660  0.29436720  0.48322982    -0.23300
C1971       C  0.51352847  0.27648190  0.48454984    -0.03300
C1972       C  0.52444768  0.25554762  0.49145625    -0.17700
H1973       H  0.56512901  0.22890817  0.50561824     0.20300
H1974       H  0.57279987  0.31501677  0.48704725     0.18600
H1975       H  0.62167683  0.30508904  0.49684059     0.18600
H1976       H  0.51647521  0.23846984  0.49410609     0.14500
C1977       C  0.72706019  0.11868197  0.50944828     0.29900
C1978       C  0.71667838  0.09915206  0.49828148    -0.36400
C1979       C  0.73163502  0.07975223  0.49385451     0.15900
C1980       C  0.75515381  0.07936515  0.50012222     0.21700
C1981       C  0.76544888  0.09878285  0.51154616    -0.34600
C1982       C  0.75052467  0.11821663  0.51590228     0.15800
O1983       O  0.71708986  0.13955496  0.51303063    -0.26600
C1984       C  0.73437001  0.15266420  0.52204084     0.05600
C1985       C  0.75545130  0.14009004  0.52444662    -0.31500
O1986       O  0.76552406  0.05891235  0.49530823    -0.23300
C1987       C  0.74846701  0.04607831  0.48555017    -0.03300
C1988       C  0.72704393  0.05821199  0.48432436    -0.17700
H1989       H  0.69833398  0.09923709  0.49297508     0.20300
H1990       H  0.78388889  0.09884332  0.51650618     0.18600
H1991       H  0.77259063  0.14679845  0.52949380     0.18600
H1992       H  0.71006078  0.05141178  0.47887208     0.14500
C1993       C  0.91594815  0.24703264  0.48860889     0.29900
C1994       C  0.89764498  0.26193905  0.48096289    -0.36400
C1995       C  0.87607375  0.25105020  0.47565456     0.15900
C1996       C  0.87271894  0.22714893  0.47801198     0.21700
C1997       C  0.89106765  0.21223200  0.48571440    -0.34600
C1998       C  0.91272111  0.22311659  0.49094848     0.15800
O1999       O  0.93781886  0.25340094  0.49304107    -0.26600
C2000       C  0.94897186  0.23343855  0.49849702     0.05600
C2001       C  0.93413659  0.21393218  0.49767134    -0.31500
O2002       O  0.85072344  0.22090566  0.47359597    -0.23300
C2003       C  0.83978676  0.24098886  0.46805290    -0.03300
C2004       C  0.85481753  0.26034328  0.46891287    -0.17700
H2005       H  0.90012248  0.28073408  0.47915023     0.20300
H2006       H  0.88858429  0.19345058  0.48758348     0.18600
H2007       H  0.93881889  0.19559650  0.49995500     0.18600
H2008       H  0.85029791  0.27874595  0.46676734     0.14500
C2009       C  0.73166617  0.27396493  0.67425163     0.29900
C2010       C  0.72681020  0.28655062  0.65366001    -0.36400
C2011       C  0.72142899  0.27292515  0.63365866     0.15900
C2012       C  0.72077593  0.24861157  0.63379200     0.21700
C2013       C  0.72554790  0.23607553  0.65436234    -0.34600
C2014       C  0.73109528  0.24966817  0.67426027     0.15800
O2015       O  0.73610993  0.28297677  0.69531679    -0.26600
C2016       C  0.73851013  0.26409646  0.70887612     0.05600
C2017       C  0.73580176  0.24301105  0.69656216    -0.31500
O2018       O  0.71751847  0.23940704  0.61264068    -0.23300
C2019       C  0.71604750  0.25809101  0.59876350    -0.03300
C2020       C  0.71817031  0.27935425  0.61095788    -0.17700
H2021       H  0.72741540  0.30559270  0.65317738     0.20300
H2022       H  0.72540349  0.21701922  0.65473957     0.18600
H2023       H  0.73584877  0.22527026  0.70338506     0.18600
H2024       H  0.71929806  0.29691609  0.60374979     0.14500
C2025       C  0.71500810  0.00270317  0.60905071     0.29900
C2026       C  0.72637837  0.01492652  0.59091613    -0.36400
C2027       C  0.73434736  0.00130543  0.57174847     0.15900
C2028       C  0.73109935  0.97729017  0.57013235     0.21700
C2029       C  0.71981997  0.96498305  0.58840293    -0.34600
C2030       C  0.71199368  0.97863175  0.60775468     0.15800
O2031       O  0.70765562  0.01180850  0.62927219    -0.26600
C2032       C  0.69976209  0.99337096  0.64128152     0.05600
C2033       C  0.70190021  0.97228860  0.62860537    -0.31500
O2034       O  0.73785597  0.96859189  0.54944535    -0.23300
C2035       C  0.74580979  0.98731015  0.53783447    -0.03300
C2036       C  0.74423264  0.00798511  0.55107484    -0.17700
H2037       H  0.72888717  0.03380343  0.59169904     0.20300
H2038       H  0.71712615  0.94613784  0.58751304     0.18600
H2039       H  0.69830547  0.95461868  0.63462801     0.18600
H2040       H  0.74759029  0.02579961  0.54529828     0.14500
C2041       C  0.71627857  0.13365506  0.76785018     0.29900
C2042       C  0.72349717  0.15154091  0.78343496    -0.36400
C2043       C  0.72946632  0.17309366  0.77316790     0.15900
C2044       C  0.72819297  0.17662157  0.74923966     0.21700
C2045       C  0.72091591  0.15879522  0.73368898    -0.34600
C2046       C  0.71497173  0.13727809  0.74393444     0.15800
O2047       O  0.71159524  0.11176992  0.77349789    -0.26600
C2048       C  0.70699746  0.10119256  0.75303483     0.05600
C2049       C  0.70868563  0.11626744  0.73394897    -0.31500
O2050       O  0.73309890  0.19837171  0.74345055    -0.23300
C2051       C  0.73781404  0.20907245  0.76378294    -0.03300
C2052       C  0.73595848  0.19417205  0.78301041    -0.17700
H2053       H  0.72456838  0.14875096  0.80220942     0.20300
H2054       H  0.71990526  0.16157355  0.71490783     0.18600
H2055       H  0.70756015  0.11192323  0.71542044     0.18600
H2056       H  0.73712954  0.19868073  0.80149367     0.14500
C2057       C  0.82390502  0.24130349  0.22631042     0.29900
C2058       C  0.84081975  0.24544728  0.24392323    -0.36400
C2059       C  0.85997821  0.25973313  0.23759481     0.15900
C2060       C  0.86229686  0.26909066  0.21540557     0.21700
C2061       C  0.84556128  0.26472910  0.19776131    -0.34600
C2062       C  0.82646604  0.25042413  0.20405490     0.15800
O2063       O  0.80306364  0.23154381  0.22941346    -0.26600
C2064       C  0.79217989  0.23399580  0.20881187     0.05600
C2065       C  0.80610703  0.24542374  0.19227909    -0.31500
O2066       O  0.88193563  0.28113993  0.21290128    -0.23300
C2067       C  0.89244732  0.27970756  0.23376012    -0.03300
C2068       C  0.87950369  0.26664503  0.24993158    -0.17700
H2069       H  0.83877897  0.23863406  0.26153779     0.20300
H2070       H  0.84713283  0.27231377  0.18042208     0.18600
H2071       H  0.80064310  0.25232273  0.17544550     0.18600
H2072       H  0.88463223  0.26139644  0.26745543     0.14500
C2073       C  0.69079663  0.19978565  0.15407067     0.29900
C2074       C  0.68480057  0.19188064  0.13117537    -0.36400
C2075       C  0.66624540  0.17524875  0.12952971     0.15900
C2076       C  0.65445666  0.16702678  0.14904026     0.21700
C2077       C  0.66013474  0.17524540  0.17170764    -0.34600
C2078       C  0.67860491  0.19168582  0.17333380     0.15800
O2079       O  0.70817099  0.21439223  0.16006591    -0.26600
C2080       C  0.70715139  0.21563660  0.18361316     0.05600
C2081       C  0.68877113  0.20186421  0.19253415    -0.31500
O2082       O  0.63825448  0.15104987  0.14380146    -0.23300
C2083       C  0.63932828  0.14874525  0.12042724    -0.03300
C2084       C  0.65639795  0.16369235  0.11065867    -0.17700
H2085       H  0.69420961  0.19791742  0.11576860     0.20300
H2086       H  0.65103524  0.16888787  0.18716507     0.18600
H2087       H  0.68353020  0.19905281  0.21055926     0.18600
H2088       H  0.66098431  0.16556679  0.09227704     0.14500
C2089       C  0.74676799  0.25440269  0.29832299     0.29900
C2090       C  0.75680977  0.26692051  0.31725753    -0.36400
C2091       C  0.75075578  0.25907871  0.33985280     0.15900
C2092       C  0.73578137  0.24030123  0.34327662     0.21700
C2093       C  0.72572952  0.22788909  0.32443020    -0.34600
C2094       C  0.73179325  0.23567906  0.30195639     0.15800
O2095       O  0.75023853  0.25843705  0.27580848    -0.26600
C2096       C  0.73726694  0.24217213  0.26487227     0.05600
C2097       C  0.72534881  0.22750152  0.28031334    -0.31500
O2098       O  0.73204772  0.23607814  0.36560607    -0.23300
C2099       C  0.74475632  0.25222827  0.37692594    -0.03300
C2100       C  0.75692268  0.26711934  0.36180888    -0.17700
H2101       H  0.76850922  0.28168757  0.31454041     0.20300
H2102       H  0.71394411  0.21318382  0.32714157     0.18600
H2103       H  0.71397624  0.21276069  0.27626225     0.18600
H2104       H  0.76808991  0.28189764  0.36628498     0.14500
C2105       C  0.71981661  0.64497579  0.25860412     0.29900
C2106       C  0.72913578  0.66349754  0.27215420    -0.36400
C2107       C  0.72804374  0.68595264  0.26216546     0.15900
C2108       C  0.71812696  0.68989042  0.24043790     0.21700
C2109       C  0.70877013  0.67131961  0.22682559    -0.34600
C2110       C  0.71013549  0.64873687  0.23672384     0.15800
O2111       O  0.72009470  0.62258265  0.26428453    -0.26600
C2112       C  0.71047877  0.61157367  0.24591961     0.05600
C2113       C  0.70395851  0.62698007  0.22807568    -0.31500
O2114       O  0.71908303  0.71223976  0.23445798    -0.23300
C2115       C  0.72998765  0.72279837  0.25241963    -0.03300
C2116       C  0.73595869  0.70724854  0.27024229    -0.17700
H2117       H  0.73710328  0.66050117  0.28914975     0.20300
H2118       H  0.70129786  0.67424553  0.20959344     0.18600
H2119       H  0.69664895  0.62272380  0.21101256     0.18600
H2120       H  0.74455720  0.71107564  0.28678854     0.14500
C2121       C  0.59146297  0.49671429  0.26502374     0.29900
C2122       C  0.57407079  0.48579522  0.27902181    -0.36400
C2123       C  0.55066363  0.48769211  0.27102430     0.15900
C2124       C  0.54517054  0.49968911  0.25078484     0.21700
C2125       C  0.56237645  0.51085543  0.23707863    -0.34600
C2126       C  0.58563133  0.50887913  0.24495091     0.15800
O2127       O  0.61448269  0.49571340  0.26817261    -0.26600
C2128       C  0.62349487  0.50747116  0.24998769     0.05600
C2129       C  0.60630843  0.51624763  0.23501031    -0.31500
O2130       O  0.52255655  0.49941367  0.24625850    -0.23300
C2131       C  0.51290399  0.48723068  0.26370923    -0.03300
C2132       C  0.52962757  0.47927299  0.27980549    -0.17700
H2133       H  0.57855836  0.47610549  0.29471475     0.20300
H2134       H  0.55791527  0.52012037  0.22111717     0.18600
H2135       H  0.60873155  0.52548799  0.21860040     0.18600
H2136       H  0.52671299  0.46941266  0.29575902     0.14500
C2137       C  0.75777295  0.37187474  0.20244859     0.29900
C2138       C  0.74710757  0.35405350  0.18896963    -0.36400
C2139       C  0.74626126  0.33173773  0.19924506     0.15900
C2140       C  0.75550704  0.32737748  0.22119274     0.21700
C2141       C  0.76605597  0.34523043  0.23474468    -0.34600
C2142       C  0.76682012  0.36758595  0.22450084     0.15800
O2143       O  0.75855798  0.39427543  0.19699232    -0.26600
C2144       C  0.76819707  0.40466589  0.21569913     0.05600
C2145       C  0.77392247  0.38886091  0.23339821    -0.31500
O2146       O  0.75351872  0.30517051  0.22713554    -0.23300
C2147       C  0.74275215  0.29506691  0.20889736    -0.03300
C2148       C  0.73756958  0.31081165  0.19100719    -0.17700
H2149       H  0.73959261  0.35748937  0.17185304     0.20300
H2150       H  0.77295186  0.34194197  0.25214853     0.18600
H2151       H  0.78023382  0.39272271  0.25094751     0.18600
H2152       H  0.72958803  0.30720052  0.17410564     0.14500
C2153       C  0.88381213  0.50484031  0.22341445     0.29900
C2154       C  0.90579082  0.49338711  0.22168623    -0.36400
C2155       C  0.92524798  0.50766965  0.21609455     0.15900
C2156       C  0.92350309  0.53165389  0.21269891     0.21700
C2157       C  0.90148110  0.54308880  0.21427099    -0.34600
C2158       C  0.88196531  0.52876256  0.21960924     0.15800
O2159       O  0.86315419  0.49489995  0.22802984    -0.26600
C2160       C  0.84783883  0.51273565  0.22699464     0.05600
C2161       C  0.85864215  0.53413187  0.22181575    -0.31500
O2162       O  0.94435901  0.54174959  0.20939873    -0.23300
C2163       C  0.95965245  0.52388928  0.21052692    -0.03300
C2164       C  0.94857978  0.50233824  0.21440039    -0.17700
H2165       H  0.90765073  0.47465902  0.22463301     0.20300
H2166       H  0.89968966  0.56188834  0.21176487     0.18600
H2167       H  0.85033675  0.55116989  0.21951459     0.18600
H2168       H  0.95674236  0.48530329  0.21712312     0.14500
C2169       C  0.81117156  0.50162598  0.50183385     0.29900
C2170       C  0.82972344  0.48820015  0.51119987    -0.36400
C2171       C  0.84870970  0.48332120  0.49591225     0.15900
C2172       C  0.84968339  0.49134806  0.47308639     0.21700
C2173       C  0.83108448  0.50468014  0.46369783    -0.34600
C2174       C  0.81203680  0.50944978  0.47892844     0.15800
O2175       O  0.79073953  0.50639460  0.51221215    -0.26600
C2176       C  0.77848247  0.51770722  0.49581788     0.05600
C2177       C  0.79089369  0.52001749  0.47480373    -0.31500
O2178       O  0.86994855  0.48619060  0.46252956    -0.23300
C2179       C  0.88204005  0.47444863  0.47875132    -0.03300
C2180       C  0.86946935  0.47192190  0.49972331    -0.17700
H2181       H  0.82927017  0.48174873  0.52906046     0.20300
H2182       H  0.83141210  0.51089820  0.44575466     0.18600
H2183       H  0.78431133  0.52641300  0.45816144     0.18600
H2184       H  0.87560201  0.46456283  0.51613139     0.14500
C2185       C  0.74027118  0.52762323  0.40631301     0.29900
C2186       C  0.75119073  0.53889986  0.38724337    -0.36400
C2187       C  0.75746938  0.52446093  0.36796043     0.15900
C2188       C  0.75314853  0.50057606  0.36718757     0.21700
C2189       C  0.74247353  0.48924837  0.38637960    -0.34600
C2190       C  0.73624813  0.50368058  0.40569986     0.15800
O2191       O  0.73419246  0.53741986  0.42671557    -0.26600
C2192       C  0.72598374  0.51950293  0.43933067     0.05600
C2193       C  0.72690881  0.49817188  0.42704030    -0.31500
O2194       O  0.75854674  0.49095475  0.34650000    -0.23300
C2195       C  0.76668644  0.50892641  0.33389322    -0.03300
C2196       C  0.76663482  0.53006253  0.34660013    -0.17700
H2197       H  0.75455114  0.55765262  0.38738867     0.20300
H2198       H  0.73900828  0.47051695  0.38618829     0.18600
H2199       H  0.72295542  0.48077402  0.43362163     0.18600
H2200       H  0.77075822  0.54751040  0.34025999     0.14500
C2201       C  0.66034690  0.59310678  0.57671098     0.29900
C2202       C  0.67801814  0.57554786  0.57543047    -0.36400
C2203       C  0.68367066  0.56667439  0.55284248     0.15900
C2204       C  0.67291718  0.57465313  0.53269789     0.21700
C2205       C  0.65515028  0.59224565  0.53399003    -0.34600
C2206       C  0.64937687  0.60101618  0.55667719     0.15800
O2207       O  0.65218226  0.60348985  0.59611003    -0.26600
C2208       C  0.63559070  0.61852284  0.58871060     0.05600
C2209       C  0.63316571  0.61753329  0.56412311    -0.31500
O2210       O  0.68117660  0.56397422  0.51339448    -0.23300
C2211       C  0.69740948  0.54872670  0.52124992    -0.03300
C2212       C  0.69948196  0.54972270  0.54572668    -0.17700
H2213       H  0.68671947  0.56912460  0.59105103     0.20300
H2214       H  0.64636002  0.59861471  0.51839354     0.18600
H2215       H  0.62104395  0.62728924  0.55317466     0.18600
H2216       H  0.71122625  0.53951612  0.55668606     0.14500
C2217       C  0.71285867  0.43072436  0.48464067     0.29900
C2218       C  0.70194955  0.41113594  0.47414018    -0.36400
C2219       C  0.71645438  0.39133851  0.47003484     0.15900
C2220       C  0.74003378  0.39057462  0.47604055     0.21700
C2221       C  0.75093268  0.41015302  0.48660588    -0.34600
C2222       C  0.73645899  0.43001388  0.49060572     0.15800
O2223       O  0.70326362  0.45181307  0.48799595    -0.26600
C2224       C  0.72091533  0.46476185  0.49644562     0.05600
C2225       C  0.74189987  0.45201921  0.49845174    -0.31500
O2226       O  0.74988601  0.36975147  0.47167652    -0.23300
C2227       C  0.73238492  0.35702823  0.46255145    -0.03300
C2228       C  0.71127868  0.36974474  0.46102156    -0.17700
H2229       H  0.68352179  0.41143118  0.46913211     0.20300
H2230       H  0.76946056  0.40999924  0.49123485     0.18600
H2231       H  0.75921712  0.45867541  0.50294955     0.18600
H2232       H  0.69410638  0.36343008  0.45558108     0.14500
C2233       C  0.44372448  0.63857081  0.00697184     0.29900
C2234       C  0.43025877  0.65529270  0.99458154    -0.36400
C2235       C  0.44010060  0.67786156  0.99266442     0.15900
C2236       C  0.46145991  0.68350001  0.00274670     0.21700
C2237       C  0.47470208  0.66693766  0.01544319    -0.34600
C2238       C  0.46509957  0.64429619  0.01701406     0.15800
O2239       O  0.43962193  0.61580036  0.00769559    -0.26600
C2240       C  0.45854938  0.60665726  0.01827126     0.05600
C2241       C  0.47490333  0.62368153  0.02478721    -0.31500
O2242       O  0.46788189  0.70520017  0.99820026    -0.23300
C2243       C  0.45059833  0.71382727  0.98489782    -0.03300
C2244       C  0.43270556  0.69752982  0.98080702    -0.17700
H2245       H  0.41390180  0.65064680  0.98594423     0.20300
H2246       H  0.49186333  0.67114719  0.02263303     0.18600
H2247       H  0.49253660  0.62098750  0.03158180     0.18600
H2248       H  0.41663740  0.69985221  0.97082227     0.14500
C2249       C  0.45797036  0.00246454  0.62514432     0.29900
C2250       C  0.44244905  0.99209680  0.64142459    -0.36400
C2251       C  0.45186010  0.98719570  0.66368089     0.15900
C2252       C  0.47490538  0.99241822  0.66938199     0.21700
C2253       C  0.49038082  0.00287927  0.65316202    -0.34600
C2254       C  0.48100686  0.00768956  0.63092362     0.15800
O2255       O  0.45323200  0.00720694  0.60303657    -0.26600
C2256       C  0.47341312  0.01567340  0.59445844     0.05600
C2257       C  0.49133916  0.01658806  0.61110703    -0.31500
O2258       O  0.47965464  0.98793105  0.69150346    -0.23300
C2259       C  0.45952562  0.97960157  0.70033788    -0.03300
C2260       C  0.44155936  0.97851063  0.68369349    -0.17700
H2261       H  0.42432853  0.98806298  0.63698745     0.20300
H2262       H  0.50844988  0.00709377  0.65764971     0.18600
H2263       H  0.50958947  0.02163319  0.60859331     0.18600
H2264       H  0.42320277  0.97400508  0.68642499     0.14500
C2265       C  0.54269596  0.99614755  0.75597943     0.29900
C2266       C  0.56099014  0.01071986  0.74803394    -0.36400
C2267       C  0.58390562  0.00159599  0.74989443     0.15900
C2268       C  0.58846734  0.97971739  0.75926448     0.21700
C2269       C  0.57009960  0.96516886  0.76743338    -0.34600
C2270       C  0.54705847  0.97423303  0.76534906     0.15800
O2271       O  0.52004134  0.00058667  0.75396722    -0.26600
C2272       C  0.50942245  0.98140694  0.76211587     0.05600
C2273       C  0.52537447  0.96435430  0.76972910    -0.31500
O2274       O  0.61117418  0.97448104  0.75880180    -0.23300
C2275       C  0.62129567  0.99313743  0.74884260    -0.03300
C2276       C  0.60514734  0.01061973  0.74295432    -0.17700
H2277       H  0.55749431  0.02771137  0.74023711     0.20300
H2278       H  0.57350948  0.94777357  0.77433379     0.18600
H2279       H  0.52161649  0.94681571  0.77601402     0.18600
H2280       H  0.60855410  0.02744408  0.73480943     0.14500
C2281       C  0.31152353  0.90203348  0.90610617     0.29900
C2282       C  0.30514777  0.90819415  0.92931966    -0.36400
C2283       C  0.28651204  0.92453214  0.93200831     0.15900
C2284       C  0.27499514  0.93444638  0.91320738     0.21700
C2285       C  0.28136773  0.92826431  0.88990449    -0.34600
C2286       C  0.29994416  0.91173134  0.88720784     0.15800
O2287       O  0.32819601  0.88680074  0.89969136    -0.26600
C2288       C  0.32747383  0.88645680  0.87619359     0.05600
C2289       C  0.31014011  0.90182201  0.86757209    -0.31500
O2290       O  0.25819740  0.94950991  0.91991481    -0.23300
C2291       C  0.25865992  0.94907407  0.94344661    -0.03300
C2292       C  0.27615224  0.93379570  0.95176034    -0.17700
H2293       H  0.31402525  0.90062619  0.94431820     0.20300
H2294       H  0.27240032  0.93573338  0.87490863     0.18600
H2295       H  0.30558836  0.90498801  0.84939472     0.18600
H2296       H  0.28106815  0.93018328  0.96972414     0.14500
C2297       C  0.37066794  0.83103466  0.90218726     0.29900
C2298       C  0.37132858  0.81346618  0.91963212    -0.36400
C2299       C  0.39394705  0.80579223  0.92677831     0.15900
C2300       C  0.41448677  0.81475670  0.91738244     0.21700
C2301       C  0.41379894  0.83249106  0.90022526    -0.34600
C2302       C  0.39124995  0.84016407  0.89315776     0.15800
O2303       O  0.35155406  0.84043589  0.89249423    -0.26600
C2304       C  0.35989609  0.85596352  0.87694646     0.05600
C2305       C  0.38464630  0.85655384  0.87700922    -0.31500
O2306       O  0.43371391  0.80532713  0.92670418    -0.23300
C2307       C  0.42556656  0.79003426  0.94246483    -0.03300
C2308       C  0.40087270  0.78968889  0.94324945    -0.17700
H2309       H  0.35532794  0.80623736  0.92708323     0.20300
H2310       H  0.42978897  0.83982658  0.89285677     0.18600
H2311       H  0.39636380  0.86730054  0.86659954     0.18600
H2312       H  0.38970024  0.77944329  0.95474482     0.14500
C2313       C  0.37430684  0.91618112  0.82908758     0.29900
C2314       C  0.38134796  0.93939796  0.82402614    -0.36400
C2315       C  0.39860672  0.94206999  0.80627686     0.15900
C2316       C  0.40851971  0.92326219  0.79437703     0.21700
C2317       C  0.40150390  0.90000281  0.79949214    -0.34600
C2318       C  0.38407836  0.89734678  0.81712900     0.15800
O2319       O  0.35875933  0.90964383  0.84528651    -0.26600
C2320       C  0.35833970  0.88609867  0.84390283     0.05600
C2321       C  0.37387702  0.87768194  0.82644444    -0.31500
O2322       O  0.42465494  0.92988030  0.77872428    -0.23300
C2323       C  0.42507638  0.95340992  0.78037075    -0.03300
C2324       C  0.40911421  0.96175890  0.79743217    -0.17700
H2325       H  0.37395603  0.95439133  0.83337596     0.20300
H2326       H  0.40916200  0.88497500  0.79041706     0.18600
H2327       H  0.37796203  0.85965569  0.82179253     0.18600
H2328       H  0.40583477  0.97966548  0.80313959     0.14500
C2329       C  0.61274217  0.75113876  0.22392426     0.29900
C2330       C  0.62925024  0.74662988  0.24175669    -0.36400
C2331       C  0.64756766  0.76309648  0.24419892     0.15900
C2332       C  0.64973635  0.78246136  0.22987502     0.21700
C2333       C  0.63320498  0.78701791  0.21212973    -0.34600
C2334       C  0.61482647  0.77065529  0.20977974     0.15800
O2335       O  0.59320104  0.73915658  0.21975755    -0.26600
C2336       C  0.58259190  0.75112440  0.20266892     0.05600
C2337       C  0.59545784  0.77077548  0.19567450    -0.31500
O2338       O  0.66974705  0.79382765  0.23322903    -0.23300
C2339       C  0.68043939  0.78195173  0.25028423    -0.03300
C2340       C  0.66730154  0.76271331  0.25781417    -0.17700
H2341       H  0.62791749  0.73135053  0.25294791     0.20300
H2342       H  0.63476543  0.80209403  0.20069758     0.18600
H2343       H  0.59012472  0.78447338  0.18363337     0.18600
H2344       H  0.67305509  0.74861187  0.26919410     0.14500
C2345       C  0.44909299  0.57615945  0.25069038     0.29900
C2346       C  0.43675235  0.59647160  0.24367226    -0.36400
C2347       C  0.45041234  0.61454830  0.23366081     0.15900
C2348       C  0.47455017  0.61284276  0.23059281     0.21700
C2349       C  0.48688894  0.59264128  0.23774068    -0.34600
C2350       C  0.47328212  0.57477661  0.24806192     0.15800
O2351       O  0.43978766  0.55637371  0.25886309    -0.26600
C2352       C  0.45838307  0.54221143  0.26179764     0.05600
C2353       C  0.47963407  0.55314243  0.25581605    -0.31500
O2354       O  0.48403534  0.63257974  0.22272064    -0.23300
C2355       C  0.46574305  0.64726494  0.22073602    -0.03300
C2356       C  0.44439125  0.63680006  0.22713160    -0.17700
H2357       H  0.41782721  0.59813204  0.24592849     0.20300
H2358       H  0.50585607  0.59108015  0.23572536     0.18600
H2359       H  0.49719752  0.54551551  0.25532950     0.18600
H2360       H  0.42723047  0.64513340  0.22889316     0.14500
C2361       C  0.47484881  0.75497317  0.09694965     0.29900
C2362       C  0.48589821  0.76436061  0.07712235    -0.36400
C2363       C  0.47084726  0.77193376  0.05921852     0.15900
C2364       C  0.44657381  0.76992625  0.06034719     0.21700
C2365       C  0.43545150  0.76107053  0.08048109    -0.34600
C2366       C  0.45054262  0.75375203  0.09855486     0.15800
O2367       O  0.48553977  0.74738376  0.11600544    -0.26600
C2368       C  0.46784713  0.74129781  0.13007508     0.05600
C2369       C  0.44568058  0.74488226  0.12012622    -0.31500
O2370       O  0.43638019  0.77411336  0.03995274    -0.23300
C2371       C  0.45437825  0.77921047  0.02579923    -0.03300
C2372       C  0.47609510  0.77872043  0.03709319    -0.17700
H2373       H  0.50493673  0.76518502  0.07551348     0.20300
H2374       H  0.41646317  0.75918527  0.08163142     0.18600
H2375       H  0.42849236  0.74259567  0.12818670     0.18600
H2376       H  0.49348859  0.77952843  0.02914223     0.14500
C2377       C  0.49723270  0.93771496  0.22615289     0.29900
C2378       C  0.48270615  0.92081821  0.23681895    -0.36400
C2379       C  0.49286356  0.89856521  0.24020114     0.15900
C2380       C  0.51571474  0.89340432  0.23336300     0.21700
C2381       C  0.53034409  0.91042172  0.22296472    -0.34600
C2382       C  0.52017162  0.93270412  0.21956415     0.15800
O2383       O  0.49166969  0.95987518  0.22269274    -0.26600
C2384       C  0.51118133  0.96944684  0.21376165     0.05600
C2385       C  0.52955463  0.95326208  0.21119642    -0.31500
O2386       O  0.52103010  0.87106319  0.23635964    -0.23300
C2387       C  0.50145942  0.86172066  0.24540511    -0.03300
C2388       C  0.48336510  0.87810356  0.24850645    -0.17700
H2389       H  0.46472935  0.92478635  0.24211300     0.20300
H2390       H  0.54831902  0.90646181  0.21767528     0.18600
H2391       H  0.54764220  0.95659177  0.20602309     0.18600
H2392       H  0.46537753  0.87500195  0.25417419     0.14500
C2393       C  0.29194865  0.80020591  0.79934707     0.29900
C2394       C  0.31502714  0.80539466  0.80704836    -0.36400
C2395       C  0.31731249  0.82426676  0.82314167     0.15900
C2396       C  0.29824729  0.83709997  0.83128463     0.21700
C2397       C  0.27512180  0.83163091  0.82393928    -0.34600
C2398       C  0.27283831  0.81282838  0.80774818     0.15800
O2399       O  0.28588649  0.78416957  0.78339888    -0.26600
C2400       C  0.26242297  0.78625670  0.78155912     0.05600
C2401       C  0.25347196  0.80390750  0.79649054    -0.31500
O2402       O  0.30454546  0.85459151  0.84549517    -0.23300
C2403       C  0.32813894  0.85324539  0.84647938    -0.03300
C2404       C  0.33683773  0.83430224  0.83307411    -0.17700
H2405       H  0.33024759  0.79576359  0.80049077     0.20300
H2406       H  0.25997787  0.84168749  0.83002091     0.18600
H2407       H  0.23546641  0.81007294  0.79831999     0.18600
H2408       H  0.35495048  0.82853078  0.83103412     0.14500
C2409       C  0.98166678  0.74669687  0.59923412     0.29900
C2410       C  0.99435573  0.75508762  0.57978792    -0.36400
C2411       C  0.98082818  0.76418269  0.56124794     0.15900
C2412       C  0.95646221  0.76480786  0.56151421     0.21700
C2413       C  0.94375085  0.75637286  0.58094465    -0.34600
C2414       C  0.95729258  0.74737558  0.59955033     0.15800
O2415       O  0.99072124  0.73945747  0.61938781    -0.26600
C2416       C  0.97185893  0.73536555  0.63279869     0.05600
C2417       C  0.95066076  0.73982162  0.62119465    -0.31500
O2418       O  0.94747789  0.77247338  0.54148611    -0.23300
C2419       C  0.96640313  0.77699680  0.52829268    -0.03300
C2420       C  0.98753746  0.77232038  0.53986395    -0.17700
H2421       H  0.01346892  0.75481287  0.57923953     0.20300
H2422       H  0.92463981  0.75680565  0.58155309     0.18600
H2423       H  0.93296247  0.73963879  0.62847741     0.18600
H2424       H  0.00528668  0.77289733  0.53274345     0.14500
C2425       C  0.15185484  0.74251478  0.73474095     0.29900
C2426       C  0.13531667  0.73193850  0.71972589    -0.36400
C2427       C  0.11458702  0.72376802  0.73036607     0.15900
C2428       C  0.11044951  0.72581842  0.75420080     0.21700
C2429       C  0.12695530  0.73665632  0.76924358    -0.34600
C2430       C  0.14770763  0.74498490  0.75854119     0.15800
O2431       O  0.17305251  0.74961594  0.72862456    -0.26600
C2432       C  0.18277637  0.75701531  0.74861811     0.05600
C2433       C  0.16768232  0.75484492  0.76788969    -0.31500
O2434       O  0.08926183  0.71823431  0.76014047    -0.23300
C2435       C  0.07961205  0.71133707  0.73985170    -0.03300
C2436       C  0.09471432  0.71423118  0.72074439    -0.17700
H2437       H  0.13849124  0.73007684  0.70102259     0.20300
H2438       H  0.12377963  0.73854818  0.78794260     0.18600
H2439       H  0.17163344  0.75795424  0.78625563     0.18600
H2440       H  0.09088593  0.71158413  0.70228099     0.14500
C2441       C  0.20426531  0.49084386  0.59489363     0.29900
C2442       C  0.20817122  0.50354945  0.57432770    -0.36400
C2443       C  0.21663723  0.49058898  0.55505222     0.15900
C2444       C  0.22083477  0.46664543  0.55555229     0.21700
C2445       C  0.21729939  0.45389236  0.57637827    -0.34600
C2446       C  0.20884363  0.46696353  0.59583768     0.15800
O2447       O  0.19792831  0.49990733  0.61537401    -0.26600
C2448       C  0.19841189  0.48166354  0.62983209     0.05600
C2449       C  0.20497328  0.46066176  0.61856873    -0.31500
O2450       O  0.22701104  0.45805529  0.53465351    -0.23300
C2451       C  0.22679706  0.47693317  0.52084038    -0.03300
C2452       C  0.22094686  0.49757646  0.53284788    -0.17700
H2453       H  0.20492946  0.52232343  0.57342808     0.20300
H2454       H  0.22077199  0.43516396  0.57734042     0.18600
H2455       H  0.20845392  0.44369166  0.62643452     0.18600
H2456       H  0.21884707  0.51517658  0.52595679     0.14500
C2457       C  0.20999687  0.63603553  0.72460501     0.29900
C2458       C  0.22346401  0.65446596  0.71518980    -0.36400
C2459       C  0.22861006  0.67322229  0.73059271     0.15900
C2460       C  0.22091576  0.67399336  0.75363108     0.21700
C2461       C  0.20719827  0.65574354  0.76295374    -0.34600
C2462       C  0.20208161  0.63698814  0.74756781     0.15800
O2463       O  0.20521815  0.61567967  0.71417633    -0.26600
C2464       C  0.19392183  0.60346210  0.73064697     0.05600
C2465       C  0.19120699  0.61611708  0.75162023    -0.31500
O2466       O  0.22641097  0.69394324  0.76437906    -0.23300
C2467       C  0.23801393  0.70606898  0.74808879    -0.03300
C2468       C  0.23984319  0.69398454  0.72675202    -0.17700
H2469       H  0.22980224  0.65406268  0.69721294     0.20300
H2470       H  0.20099304  0.65609670  0.78098031     0.18600
H2471       H  0.18439233  0.60988340  0.76825382     0.18600
H2472       H  0.24643695  0.70057279  0.71016563     0.14500
C2473       C  0.23600028  0.61179688  0.47351408     0.29900
C2474       C  0.24715896  0.59320901  0.46136039    -0.36400
C2475       C  0.23895795  0.57058115  0.46638428     0.15900
C2476       C  0.22110072  0.56665651  0.48240830     0.21700
C2477       C  0.21000888  0.58526835  0.49470394    -0.34600
C2478       C  0.21810745  0.60797175  0.48954690     0.15800
O2479       O  0.24064602  0.63424125  0.47098361    -0.26600
C2480       C  0.22558596  0.64518104  0.48546660     0.05600
C2481       C  0.21103639  0.62972039  0.49762947    -0.31500
O2482       O  0.21600805  0.54419210  0.48420567    -0.23300
C2483       C  0.23071646  0.53345879  0.46918137    -0.03300
C2484       C  0.24550204  0.54905408  0.45753415    -0.17700
H2485       H  0.26109604  0.59624430  0.44867255     0.20300
H2486       H  0.19589984  0.58224151  0.50720352     0.18600
H2487       H  0.19730247  0.63385694  0.51030736     0.18600
H2488       H  0.25895624  0.54518570  0.44448900     0.14500
C2489       C  0.24463380  0.74235026  0.62118854     0.29900
C2490       C  0.26050077  0.74774167  0.63944974    -0.36400
C2491       C  0.25046670  0.75669230  0.66032912     0.15900
C2492       C  0.22644025  0.75990171  0.66295104     0.21700
C2493       C  0.21062747  0.75479801  0.64460911    -0.34600
C2494       C  0.22065232  0.74588635  0.62375650     0.15800
O2495       O  0.25024237  0.73409711  0.60016654    -0.26600
C2496       C  0.22962848  0.73222924  0.58901238     0.05600
C2497       C  0.21053837  0.73934396  0.60288648    -0.31500
O2498       O  0.22051885  0.76562292  0.68465218    -0.23300
C2499       C  0.24093430  0.76652967  0.69620004    -0.03300
C2500       C  0.26028356  0.76128233  0.68187336    -0.17700
H2501       H  0.27931412  0.74472642  0.63764209     0.20300
H2502       H  0.19173162  0.75696192  0.64672633     0.18600
H2503       H  0.19212117  0.74056153  0.59797329     0.18600
H2504       H  0.27841990  0.75846125  0.68716071     0.14500
C2505       C  0.05187887  0.76065507  0.47996119     0.29900
C2506       C  0.06971832  0.75045862  0.49365319    -0.36400
C2507       C  0.09071407  0.74451762  0.48193331     0.15900
C2508       C  0.09411271  0.74865846  0.45832202     0.21700
C2509       C  0.07605861  0.75877866  0.44446149    -0.34600
C2510       C  0.05481351  0.76461177  0.45625243     0.15800
O2511       O  0.03062204  0.76627662  0.48746562    -0.26600
C2512       C  0.01932628  0.77407688  0.46854204     0.05600
C2513       C  0.03359374  0.77360213  0.44843028    -0.31500
O2514       O  0.11596600  0.74364200  0.45157293    -0.23300
C2515       C  0.12658386  0.73587994  0.47105358    -0.03300
C2516       C  0.11152999  0.73588157  0.49042184    -0.17700
H2517       H  0.06734790  0.74737607  0.51227164     0.20300
H2518       H  0.07850907  0.76209647  0.42589666     0.18600
H2519       H  0.02859299  0.77757510  0.43053844     0.18600
H2520       H  0.11591770  0.73225974  0.50855496     0.14500
C2521       C  0.48918239  0.83112086  0.50088823     0.29900
C2522       C  0.47458822  0.84830870  0.49085913    -0.36400
C2523       C  0.48583110  0.86901952  0.48391659     0.15900
C2524       C  0.50973572  0.87254612  0.48691903     0.21700
C2525       C  0.52431372  0.85537706  0.49703589    -0.34600
C2526       C  0.51308709  0.83462337  0.50392455     0.15800
O2527       O  0.48281709  0.80959832  0.50601696    -0.26600
C2528       C  0.50277455  0.79910483  0.51251045     0.05600
C2529       C  0.52222944  0.81391655  0.51194170    -0.31500
O2530       O  0.51633884  0.89367582  0.48047802    -0.23300
C2531       C  0.49649619  0.90382927  0.47312469    -0.03300
C2532       C  0.47690007  0.88924392  0.47462760    -0.17700
H2533       H  0.45588180  0.84549517  0.48820224     0.20300
H2534       H  0.54311499  0.85796864  0.49919553     0.18600
H2535       H  0.54065047  0.80932745  0.51425010     0.18600
H2536       H  0.45858552  0.89355152  0.47123307     0.14500
C2537       C  0.59066921  0.67581958  0.56902816     0.29900
C2538       C  0.58861110  0.69408569  0.55250481    -0.36400
C2539       C  0.56549537  0.70177138  0.54736100     0.15900
C2540       C  0.54569080  0.69198142  0.55748503     0.21700
C2541       C  0.54777241  0.67384770  0.57408086    -0.34600
C2542       C  0.57088852  0.66640104  0.57942723     0.15800
O2543       O  0.61052973  0.66604241  0.57663179    -0.26600
C2544       C  0.60356262  0.65009255  0.59239934     0.05600
C2545       C  0.57885806  0.64988031  0.59476417    -0.31500
O2546       O  0.52578246  0.70147858  0.54974631    -0.23300
C2547       C  0.53286762  0.71773890  0.53448310    -0.03300
C2548       C  0.55743532  0.71876475  0.53250025    -0.17700
H2549       H  0.60396452  0.70183396  0.54427491     0.20300
H2550       H  0.53242078  0.66608918  0.58230993     0.18600
H2551       H  0.56799953  0.63932841  0.60623789     0.18600
H2552       H  0.56778559  0.73017304  0.52134634     0.14500
C2553       C  0.49621990  0.76188544  0.42234026     0.29900
C2554       C  0.48405590  0.77380475  0.40456906    -0.36400
C2555       C  0.49376315  0.77200213  0.38200226     0.15900
C2556       C  0.51408689  0.75927657  0.37739323     0.21700
C2557       C  0.52637617  0.74740930  0.39524669    -0.34600
C2558       C  0.51657240  0.74917361  0.41786782     0.15800
O2559       O  0.49001965  0.76132471  0.44452916    -0.26600
C2560       C  0.50646331  0.74810868  0.45467917     0.05600
C2561       C  0.52354940  0.73988212  0.43891323    -0.31500
O2562       O  0.51889772  0.75824689  0.35481425    -0.23300
C2563       C  0.50151973  0.77045715  0.34476499    -0.03300
C2564       C  0.48540675  0.77967788  0.36086956    -0.17700
H2565       H  0.46787214  0.78344381  0.40807002     0.20300
H2566       H  0.54209595  0.73706517  0.39161799     0.18600
H2567       H  0.53898203  0.72918530  0.44246135     0.18600
H2568       H  0.46903394  0.78891342  0.35740851     0.14500
C2569       C  0.41637640  0.75297761  0.49430218     0.29900
C2570       C  0.39861910  0.76252420  0.47993433    -0.36400
C2571       C  0.37608081  0.76453371  0.49008302     0.15900
C2572       C  0.37148491  0.75745519  0.51277883     0.21700
C2573       C  0.38923408  0.74780768  0.52711008    -0.34600
C2574       C  0.41179773  0.74582479  0.51697236     0.15800
O2575       O  0.43887177  0.75111179  0.48882577    -0.26600
C2576       C  0.44904981  0.74252694  0.50807414     0.05600
C2577       C  0.43298804  0.73867611  0.52622462    -0.31500
O2578       O  0.34914742  0.76032094  0.51860179    -0.23300
C2579       C  0.33915052  0.76946055  0.49950954    -0.03300
C2580       C  0.35511393  0.77256420  0.48111976    -0.17700
H2581       H  0.40224465  0.76829984  0.46219100     0.20300
H2582       H  0.38569491  0.74238721  0.54498142     0.18600
H2583       H  0.43662047  0.73319556  0.54404078     0.18600
H2584       H  0.35160585  0.77878575  0.46352216     0.14500
C2585       C  0.09649722  0.58916877  0.14437685     0.29900
C2586       C  0.08991394  0.56591233  0.14998950    -0.36400
C2587       C  0.07174834  0.56332883  0.16686836     0.15900
C2588       C  0.06070045  0.58225695  0.17752260     0.21700
C2589       C  0.06732710  0.60551591  0.17196625    -0.34600
C2590       C  0.08548353  0.60811270  0.15508477     0.15800
O2591       O  0.11285329  0.59565762  0.12891630    -0.26600
C2592       C  0.11239865  0.61923017  0.12954654     0.05600
C2593       C  0.09562037  0.62778161  0.14566385    -0.31500
O2594       O  0.04390338  0.57576898  0.19250221    -0.23300
C2595       C  0.04407517  0.55221043  0.19164096    -0.03300
C2596       C  0.06123269  0.54366529  0.17585896    -0.17700
H2597       H  0.09828213  0.55082893  0.14165807     0.20300
H2598       H  0.05879940  0.62059618  0.18013512     0.18600
H2599       H  0.09140317  0.64598877  0.14965629     0.18600
H2600       H  0.06540284  0.52564029  0.17119850     0.14500
C2601       C  0.35666027  0.74284080  0.26778245     0.29900
C2602       C  0.33848531  0.72654250  0.26340908    -0.36400
C2603       C  0.31948523  0.73464781  0.24977138     0.15900
C2604       C  0.31840058  0.75732468  0.24133311     0.21700
C2605       C  0.33644434  0.77364137  0.24584077    -0.34600
C2606       C  0.35542172  0.76553622  0.25940983     0.15800
O2607       O  0.37712123  0.73829058  0.27788527    -0.26600
C2608       C  0.38912390  0.75839882  0.27625831     0.05600
C2609       C  0.37627806  0.77605917  0.26514098    -0.31500
O2610       O  0.29832675  0.76179748  0.23058829    -0.23300
C2611       C  0.28639007  0.74165668  0.23167151    -0.03300
C2612       C  0.29873765  0.72407904  0.24343260    -0.17700
H2613       H  0.33928535  0.70868107  0.26988434     0.20300
H2614       H  0.33573095  0.79144490  0.23919341     0.18600
H2615       H  0.38246098  0.79315566  0.25955659     0.18600
H2616       H  0.29233970  0.70697671  0.24873500     0.14500
C2617       C  0.24043745  0.76184809  0.31496769     0.29900
C2618       C  0.25505498  0.77043561  0.33298303    -0.36400
C2619       C  0.24359836  0.77856160  0.35339834     0.15900
C2620       C  0.21937669  0.77816241  0.35593717     0.21700
C2621       C  0.20471175  0.76945565  0.33788342    -0.34600
C2622       C  0.21620851  0.76124515  0.31740308     0.15800
O2623       O  0.24749715  0.75499328  0.29393879    -0.26600
C2624       C  0.22767802  0.74961908  0.28256233     0.05600
C2625       C  0.20754284  0.75296151  0.29639295    -0.31500
O2626       O  0.21254857  0.78501332  0.37714347    -0.23300
C2627       C  0.23262694  0.78989112  0.38839730    -0.03300
C2628       C  0.25252284  0.78639585  0.37432201    -0.17700
H2629       H  0.27408895  0.77081424  0.33115171     0.20300
H2630       H  0.18568907  0.76895626  0.33976271     0.18600
H2631       H  0.18925615  0.75148303  0.29112227     0.18600
H2632       H  0.27090252  0.78746114  0.37939516     0.14500
C2633       C  0.24721104  0.83229669  0.21437772     0.29900
C2634       C  0.25803694  0.85106882  0.20251062    -0.36400
C2635       C  0.26484642  0.87037728  0.21656430     0.15900
C2636       C  0.26126409  0.87114098  0.24057794     0.21700
C2637       C  0.25028719  0.85257501  0.25234054    -0.34600
C2638       C  0.24336116  0.83345823  0.23833294     0.15800
O2639       O  0.24146386  0.81153544  0.20532785    -0.26600
C2640       C  0.23359873  0.79949228  0.22378475     0.05600
C2641       C  0.23414770  0.81245828  0.24460610    -0.31500
O2642       O  0.26773333  0.89131170  0.25013124    -0.23300
C2643       C  0.27559817  0.90380669  0.23206085    -0.03300
C2644       C  0.27435229  0.89158475  0.21073029    -0.17700
H2645       H  0.26118238  0.85055987  0.18373001     0.20300
H2646       H  0.24734959  0.85299026  0.27115965     0.18600
H2647       H  0.23053572  0.80637423  0.26226141     0.18600
H2648       H  0.27807133  0.89809521  0.19326601     0.14500
C2649       C  0.18142780  0.70603897  0.17402615     0.29900
C2650       C  0.16515184  0.70545741  0.15526839    -0.36400
C2651       C  0.15752858  0.68302772  0.14766383     0.15900
C2652       C  0.16552111  0.66248590  0.15762702     0.21700
C2653       C  0.18174542  0.66304617  0.17649711    -0.34600
C2654       C  0.18920991  0.68552535  0.18428166     0.15800
O2655       O  0.19089551  0.72511185  0.18372647    -0.26600
C2656       C  0.20497473  0.71692700  0.20067979     0.05600
C2657       C  0.20447104  0.69231812  0.20180048    -0.31500
O2658       O  0.15631876  0.64347054  0.14750874    -0.23300
C2659       C  0.14205458  0.65174691  0.13066843    -0.03300
C2660       C  0.14208885  0.67644258  0.13031362    -0.17700
H2661       H  0.15885483  0.72144873  0.14711279     0.20300
H2662       H  0.18813036  0.64704103  0.18456135     0.18600
H2663       H  0.21421004  0.68108110  0.21365158     0.18600
H2664       H  0.13229512  0.68809065  0.11895000     0.14500
C2665       C  0.36491072  0.52945264  0.96005252     0.29900
C2666       C  0.34876218  0.54740598  0.96642168    -0.36400
C2667       C  0.32967286  0.54058741  0.98075540     0.15900
C2668       C  0.32689137  0.51771055  0.98819320     0.21700
C2669       C  0.34283292  0.49984295  0.98169002    -0.34600
C2670       C  0.36169456  0.50657195  0.96729404     0.15800
O2671       O  0.38497806  0.53208877  0.94844250    -0.26600
C2672       C  0.39452381  0.51053144  0.94790957     0.05600
C2673       C  0.38059072  0.49392757  0.95918944    -0.31500
O2674       O  0.30686140  0.51450709  0.99941528    -0.23300
C2675       C  0.29638217  0.53551832  0.99946507    -0.03300
C2676       C  0.30987986  0.55258336  0.98816845    -0.17700
H2677       H  0.35093405  0.56538122  0.96061432     0.20300
H2678       H  0.34045502  0.48180071  0.98720944     0.18600
H2679       H  0.38493241  0.47577220  0.96301645     0.18600
H2680       H  0.30455237  0.57024912  0.98342438     0.14500
C2681       C  0.24022300  0.53469029  0.86827126     0.29900
C2682       C  0.23031559  0.54795235  0.88687094    -0.36400
C2683       C  0.23439269  0.53935225  0.90956826     0.15900
C2684       C  0.24737611  0.51915456  0.91344570     0.21700
C2685       C  0.25718077  0.50589146  0.89489592    -0.34600
C2686       C  0.25312038  0.51445519  0.87225717     0.15800
O2687       O  0.23829606  0.53928027  0.84572927    -0.26600
C2688       C  0.25013476  0.52183991  0.83507574     0.05600
C2689       C  0.25977765  0.50579900  0.85072646    -0.31500
O2690       O  0.24979411  0.51463926  0.93588965    -0.23300
C2691       C  0.23822780  0.53203518  0.94677435    -0.03300
C2692       C  0.22807234  0.54799014  0.93126724    -0.17700
H2693       H  0.22020372  0.56385775  0.88383410     0.20300
H2694       H  0.26740088  0.49006135  0.89795535     0.18600
H2695       H  0.26965192  0.48987408  0.84681514     0.18600
H2696       H  0.21833738  0.56395806  0.93534349     0.14500
C2697       C  0.20155937  0.58376389  0.05501948     0.29900
C2698       C  0.20011403  0.60101620  0.07295311    -0.36400
C2699       C  0.17730384  0.60650465  0.08152786     0.15900
C2700       C  0.15721148  0.59589092  0.07302972     0.21700
C2701       C  0.15863477  0.57869586  0.05502726    -0.34600
C2702       C  0.18145191  0.57312718  0.04650416     0.15800
O2703       O  0.22109678  0.57572441  0.04468877    -0.26600
C2704       C  0.21350265  0.55961537  0.02924784     0.05600
C2705       C  0.18892904  0.55738449  0.02967933    -0.31500
O2706       O  0.13768882  0.60394353  0.08336841    -0.23300
C2707       C  0.14519300  0.62001310  0.09894501    -0.03300
C2708       C  0.16986702  0.62222590  0.09835387    -0.17700
H2709       H  0.21572301  0.60955530  0.07981281     0.20300
H2710       H  0.14301280  0.57021265  0.04813003     0.18600
H2711       H  0.17818052  0.54563489  0.01919051     0.18600
H2712       H  0.18087426  0.63409984  0.10840793     0.14500
C2713       C  0.23228639  0.44346551  0.00159146     0.29900
C2714       C  0.21881813  0.42285093  0.00198143    -0.36400
C2715       C  0.23029506  0.40222132  0.99433840     0.15900
C2716       C  0.25352987  0.40156474  0.98691900     0.21700
C2717       C  0.26704064  0.42229612  0.98640739    -0.34600
C2718       C  0.25546383  0.44305018  0.99396421     0.15800
O2719       O  0.22475481  0.46486778  0.00718932    -0.26600
C2720       C  0.24332413  0.47848369  0.00299619     0.05600
C2721       C  0.26294444  0.46577062  0.99487098    -0.31500
O2722       O  0.26078979  0.37991550  0.98150754    -0.23300
C2723       C  0.24180424  0.36667346  0.98549043    -0.03300
C2724       C  0.22240754  0.37978177  0.99331145    -0.17700
H2725       H  0.20058579  0.42288167  0.00778122     0.20300
H2726       H  0.28526108  0.42227822  0.98056752     0.18600
H2727       H  0.28009197  0.47233837  0.98967720     0.18600
H2728       H  0.20512417  0.37348437  0.99844818     0.14500
C2729       C  0.99505666  0.82163933  0.00983291     0.29900
C2730       C  0.97842702  0.83778152  0.00128683    -0.36400
C2731       C  0.98754718  0.85852585  0.99185168     0.15900
C2732       C  0.01138311  0.86341634  0.99164802     0.21700
C2733       C  0.02805845  0.84743223  0.00058119    -0.34600
C2734       C  0.01896692  0.82629516  0.00942506     0.15800
O2735       O  0.99055870  0.79955644  0.01466091    -0.26600
C2736       C  0.01168465  0.78965800  0.01732634     0.05600
C2737       C  0.03012518  0.80559124  0.01471219    -0.31500
O2738       O  0.01599895  0.88382461  0.98186126    -0.23300
C2739       C  0.99490454  0.89193912  0.97536480    -0.03300
C2740       C  0.97650384  0.87687653  0.98105736    -0.17700
H2741       H  0.95978496  0.83369015  0.00054296     0.20300
H2742       H  0.04685379  0.85071145  0.99951307     0.18600
H2743       H  0.04877898  0.80166278  0.01290114     0.18600
H2744       H  0.95773351  0.87954797  0.97858655     0.14500
C2745       C  0.01069868  0.76712550  0.91972707     0.29900
C2746       C  0.99827140  0.78048723  0.90304833    -0.36400
C2747       C  0.00617275  0.77858714  0.87969932     0.15900
C2748       C  0.02525923  0.76470622  0.87346474     0.21700
C2749       C  0.03775858  0.75140876  0.89018575    -0.34600
C2750       C  0.02962498  0.75304950  0.91348684     0.15800
O2751       O  0.00528647  0.76530976  0.94211676    -0.26600
C2752       C  0.02074853  0.74979477  0.95059483     0.05600
C2753       C  0.03649212  0.74152820  0.93350572    -0.31500
O2754       O  0.02855918  0.76397221  0.85057351    -0.23300
C2755       C  0.01138616  0.77743121  0.84176933    -0.03300
C2756       C  0.99685350  0.78711568  0.85916455    -0.17700
H2757       H  0.98294787  0.79094543  0.90785796     0.20300
H2758       H  0.05222161  0.73986991  0.88518283     0.18600
H2759       H  0.05045183  0.72860363  0.93536823     0.18600
H2760       H  0.98092044  0.79745546  0.85695514     0.14500
C2761       C  0.07298086  0.69212494  0.04264966     0.29900
C2762       C  0.09651760  0.68814541  0.04988805    -0.36400
C2763       C  0.09992835  0.67168543  0.06808483     0.15900
C2764       C  0.08145516  0.65990977  0.07845950     0.21700
C2765       C  0.05798437  0.66351492  0.07088968    -0.34600
C2766       C  0.05456823  0.67997301  0.05269346     0.15800
O2767       O  0.06564589  0.70798568  0.02722294    -0.26600
C2768       C  0.04209542  0.70597199  0.02701315     0.05600
C2769       C  0.03435020  0.68856450  0.04255656    -0.31500
O2770       O  0.08849038  0.64598901  0.09574545    -0.23300
C2771       C  0.11195364  0.64874332  0.09672265    -0.03300
C2772       C  0.11994441  0.66441261  0.07954119    -0.17700
H2773       H  0.11113516  0.69770311  0.04227740     0.20300
H2774       H  0.04329959  0.65450394  0.07903020     0.18600
H2775       H  0.01640944  0.68377183  0.04693070     0.18600
H2776       H  0.13795166  0.66980731  0.07618271     0.14500
C2777       C  0.04895786  0.19572704  0.55692008     0.29900
C2778       C  0.05589019  0.19177451  0.58042007    -0.36400
C2779       C  0.07529659  0.17647331  0.58382777     0.15900
C2780       C  0.08708909  0.16584158  0.56536273     0.21700
C2781       C  0.08026604  0.16991243  0.54187720    -0.34600
C2782       C  0.06085391  0.18516167  0.53847851     0.15800
O2783       O  0.03153548  0.20959137  0.54973765    -0.26600
C2784       C  0.03217232  0.20812685  0.52624809     0.05600
C2785       C  0.05015669  0.19297280  0.51836823    -0.31500
O2786       O  0.10439930  0.15184129  0.57247458    -0.23300
C2787       C  0.10387376  0.15319716  0.59599653    -0.03300
C2788       C  0.08610240  0.16860493  0.60390672    -0.17700
H2789       H  0.04675056  0.20005291  0.59506220     0.20300
H2790       H  0.08943955  0.16167767  0.52722881     0.18600
H2791       H  0.05512094  0.18858007  0.50049033     0.18600
H2792       H  0.08155682  0.17306632  0.62189536     0.14500
C2793       C  0.35861932  0.00717183  0.47541409     0.29900
C2794       C  0.34043478  0.02167849  0.46693809    -0.36400
C2795       C  0.32168274  0.02624496  0.48261632     0.15900
C2796       C  0.32082588  0.01720046  0.50506793     0.21700
C2797       C  0.33886510  0.00259238  0.51345252    -0.34600
C2798       C  0.35746336  0.99790670  0.49775180     0.15800
O2799       O  0.37857295  0.00168708  0.46441587    -0.26600
C2800       C  0.39014672  0.98849888  0.47989728     0.05600
C2801       C  0.37762255  0.98539547  0.50076946    -0.31500
O2802       O  0.30073570  0.02196856  0.51595668    -0.23300
C2803       C  0.28860268  0.03447242  0.50041001    -0.03300
C2804       C  0.30075656  0.03758036  0.47934688    -0.17700
H2805       H  0.34081177  0.02882431  0.44934938     0.20300
H2806       H  0.33827079  0.99508494  0.53088705     0.18600
H2807       H  0.38339720  0.97671750  0.51664571     0.18600
H2808       H  0.29406384  0.04490849  0.46314312     0.14500
C2809       C  0.23885611  0.04089951  0.41252565     0.29900
C2810       C  0.24696157  0.05149759  0.39175072    -0.36400
C2811       C  0.25233445  0.03611968  0.37292875     0.15900
C2812       C  0.24996766  0.01198891  0.37435715     0.21700
C2813       C  0.24166276  0.00145128  0.39500424    -0.34600
C2814       C  0.23612807  0.01679808  0.41371032     0.15800
O2815       O  0.23496166  0.05151572  0.43302222    -0.26600
C2816       C  0.22933231  0.03393791  0.44737330     0.05600
C2817       C  0.22959247  0.01207466  0.43614216    -0.31500
O2818       O  0.25509640  0.00104206  0.35435312    -0.23300
C2819       C  0.26085784  0.01838782  0.33982217    -0.03300
C2820       C  0.25949864  0.04056101  0.35053170    -0.17700
H2821       H  0.24925592  0.07035895  0.39044161     0.20300
H2822       H  0.23974522  0.98255761  0.39644746     0.18600
H2823       H  0.22761001  0.99489636  0.44404919     0.18600
H2824       H  0.26195032  0.05761323  0.34249993     0.14500
C2825       C  0.22436966  0.94445920  0.50139397     0.29900
C2826       C  0.21132513  0.92361689  0.50122565    -0.36400
C2827       C  0.22362090  0.90330298  0.49419253     0.15900
C2828       C  0.24721111  0.90316126  0.48791148     0.21700
C2829       C  0.26030165  0.92407012  0.48803589    -0.34600
C2830       C  0.24792356  0.94449076  0.49495600     0.15800
O2831       O  0.21614013  0.96571360  0.50640082    -0.26600
C2832       C  0.23467312  0.97956543  0.50300430     0.05600
C2833       C  0.25492682  0.96726109  0.49608069    -0.31500
O2834       O  0.25525044  0.88173781  0.48305745    -0.23300
C2835       C  0.23641932  0.86817137  0.48627157    -0.03300
C2836       C  0.21631896  0.88075052  0.49297761    -0.17700
H2837       H  0.19284180  0.92324766  0.50614813     0.20300
H2838       H  0.27878952  0.92441960  0.48312806     0.18600
H2839       H  0.27218470  0.97417130  0.49174524     0.18600
H2840       H  0.19900815  0.87403434  0.49745029     0.14500
C2841       C  0.17636890  0.07482992  0.54659525     0.29900
C2842       C  0.15281021  0.08047911  0.55245255    -0.36400
C2843       C  0.14948185  0.09776713  0.57006813     0.15900
C2844       C  0.16798109  0.10863490  0.58141824     0.21700
C2845       C  0.19155712  0.10289778  0.57562668    -0.34600
C2846       C  0.19489542  0.08577312  0.55781170     0.15800
O2847       O  0.18352356  0.05958038  0.53027987    -0.26600
C2848       C  0.20708381  0.06071494  0.53081054     0.05600
C2849       C  0.21502527  0.07680837  0.54778550    -0.31500
O2850       O  0.16077006  0.12432933  0.59732468    -0.23300
C2851       C  0.13718779  0.12368589  0.59620850    -0.03300
C2852       C  0.12936226  0.10736807  0.57939072    -0.17700
H2853       H  0.13806350  0.07214698  0.54369945     0.20300
H2854       H  0.20630108  0.11136337  0.58425507     0.18600
H2855       H  0.23293364  0.08154641  0.55223287     0.18600
H2856       H  0.11130922  0.10309108  0.57489328     0.14500
C2857       C  0.65386629  0.50352211  0.99161742     0.29900
C2858       C  0.63601056  0.52036113  0.99570826    -0.36400
C2859       C  0.61652530  0.51286178  0.00897566     0.15900
C2860       C  0.61473733  0.49025773  0.01747305     0.21700
C2861       C  0.63262952  0.47341262  0.01343643    -0.34600
C2862       C  0.65208323  0.48090322  0.00008293     0.15800
O2863       O  0.67429853  0.50735184  0.98118921    -0.26600
C2864       C  0.68569123  0.48682790  0.98246084     0.05600
C2865       C  0.67269059  0.46966653  0.99407104    -0.31500
O2866       O  0.59405226  0.48630342  0.02733724    -0.23300
C2867       C  0.58235893  0.50663792  0.02535102    -0.03300
C2868       C  0.59566007  0.52394653  0.01430469    -0.17700
H2869       H  0.63723385  0.53809419  0.98897241     0.20300
H2870       H  0.63128925  0.45560247  0.01995542     0.18600
H2871       H  0.67852289  0.45233056  0.99939520     0.18600
H2872       H  0.58984176  0.54114994  0.00856699     0.14500
C2873       C  0.73067667  0.47928469  0.06735864     0.29900
C2874       C  0.72067752  0.46766699  0.08679280    -0.36400
C2875       C  0.71216816  0.48218182  0.10523391     0.15900
C2876       C  0.71363230  0.50641321  0.10476922     0.21700
C2877       C  0.72381257  0.51796052  0.08551080    -0.34600
C2878       C  0.73223904  0.50351123  0.06712272     0.15800
O2879       O  0.73716959  0.46955409  0.04702829    -0.26600
C2880       C  0.74320264  0.48783733  0.03369654     0.05600
C2881       C  0.74070706  0.50927803  0.04555196    -0.31500
O2882       O  0.70577238  0.51651067  0.12436313    -0.23300
C2883       C  0.69897644  0.49856581  0.13771086    -0.03300
C2884       C  0.70237310  0.47679158  0.12649127    -0.17700
H2885       H  0.71916828  0.44868059  0.08729802     0.20300
H2886       H  0.72488272  0.53696945  0.08478784     0.18600
H2887       H  0.74236179  0.52680480  0.03837381     0.18600
H2888       H  0.69971514  0.45940497  0.13367131     0.14500
C2889       C  0.94178755  0.48574919  0.66064827     0.29900
C2890       C  0.93311562  0.50000244  0.64251996    -0.36400
C2891       C  0.94860852  0.50391803  0.62362196     0.15900
C2892       C  0.97108618  0.49447968  0.62252622     0.21700
C2893       C  0.97963509  0.47998357  0.64050875    -0.34600
C2894       C  0.96410011  0.47596415  0.65935056     0.15800
O2895       O  0.93162182  0.48238466  0.68129193    -0.26600
C2896       C  0.94741774  0.46988375  0.69327676     0.05600
C2897       C  0.96785514  0.46527765  0.68032352    -0.31500
O2898       O  0.98208518  0.49947505  0.60264955    -0.23300
C2899       C  0.96646224  0.51236028  0.59085751    -0.03300
C2900       C  0.94535556  0.51566085  0.60312686    -0.17700
H2901       H  0.91571432  0.50794754  0.64333967     0.20300
H2902       H  0.99726201  0.47253406  0.63997186     0.18600
H2903       H  0.98438045  0.45812460  0.68669537     0.18600
H2904       H  0.92924704  0.52384085  0.59693787     0.14500
C2905       C  0.94812278  0.56668272  0.75085808     0.29900
C2906       C  0.94803842  0.58829500  0.76286790    -0.36400
C2907       C  0.95605461  0.60771805  0.75004809     0.15900
C2908       C  0.96355182  0.60624517  0.72694655     0.21700
C2909       C  0.96315195  0.58469075  0.71477203    -0.34600
C2910       C  0.95525631  0.56520429  0.72765075     0.15800
O2911       O  0.94351490  0.54588403  0.76005389    -0.26600
C2912       C  0.94780901  0.53086894  0.74248377     0.05600
C2913       C  0.95476340  0.54202481  0.72182651    -0.31500
O2914       O  0.97117572  0.62663650  0.71875901    -0.23300
C2915       C  0.96842346  0.64128953  0.73693491    -0.03300
C2916       C  0.95902470  0.63040989  0.75675108    -0.17700
H2917       H  0.94288653  0.58974231  0.78117304     0.20300
H2918       H  0.96928235  0.58305772  0.69678131     0.18600
H2919       H  0.95985282  0.53422929  0.70513619     0.18600
H2920       H  0.95503352  0.63816249  0.77377110     0.14500
C2921       C  0.03886032  0.48689205  0.72978879     0.29900
C2922       C  0.05658437  0.49814326  0.71671822    -0.36400
C2923       C  0.07991024  0.49235659  0.72255798     0.15900
C2924       C  0.08528155  0.47639646  0.73993725     0.21700
C2925       C  0.06752646  0.46486496  0.75276501    -0.34600
C2926       C  0.04418338  0.47088473  0.74711485     0.15800
O2927       O  0.01601989  0.49050884  0.72783515    -0.26600
C2928       C  0.00636305  0.47672956  0.74408792     0.05600
C2929       C  0.02309923  0.46401973  0.75670097    -0.31500
O2930       O  0.10814156  0.47485295  0.74370585    -0.23300
C2931       C  0.11763604  0.49002667  0.72863652    -0.03300
C2932       C  0.10091199  0.50130316  0.71478520    -0.17700
H2933       H  0.05245243  0.51104684  0.70341602     0.20300
H2934       H  0.07166101  0.45265009  0.76669772     0.18600
H2935       H  0.02022802  0.45170263  0.77084512     0.18600
H2936       H  0.10372059  0.51484643  0.70178502     0.14500
C2937       C  0.91700056  0.31086283  0.91624144     0.29900
C2938       C  0.90707945  0.31473142  0.89382910    -0.36400
C2939       C  0.88935679  0.33226775  0.89233706     0.15900
C2940       C  0.88177960  0.34519224  0.91154273     0.21700
C2941       C  0.89162463  0.34125177  0.93397839    -0.34600
C2942       C  0.90940302  0.32374094  0.93544356     0.15800
O2943       O  0.93391965  0.29547944  0.92159523    -0.26600
C2944       C  0.93740030  0.29833537  0.94471224     0.05600
C2945       C  0.92247687  0.31590896  0.95406896    -0.31500
O2946       O  0.86571522  0.36136946  0.90595989    -0.23300
C2947       C  0.86289781  0.35898610  0.88269500    -0.03300
C2948       C  0.87713710  0.34087371  0.87349000    -0.17700
H2949       H  0.91296599  0.30491305  0.87850081     0.20300
H2950       H  0.88603796  0.35137366  0.94922640     0.18600
H2951       H  0.92116298  0.32228292  0.97196983     0.18600
H2952       H  0.87887372  0.33550087  0.85526438     0.14500
C2953       C  0.80300214  0.40901680  0.89891968     0.29900
C2954       C  0.77985909  0.41517531  0.90594790    -0.36400
C2955       C  0.77759921  0.43262205  0.92360775     0.15900
C2956       C  0.79674159  0.44361637  0.93361895     0.21700
C2957       C  0.82001996  0.43759604  0.92642264    -0.34600
C2958       C  0.82229982  0.41986927  0.90885675     0.15800
O2959       O  0.80896246  0.39254171  0.88329173    -0.26600
C2960       C  0.83259121  0.39241591  0.88304728     0.05600
C2961       C  0.84175893  0.40934634  0.89860833    -0.31500
O2962       O  0.79036247  0.45935785  0.94996578    -0.23300
C2963       C  0.76668252  0.45846079  0.95059822    -0.03300
C2964       C  0.75799928  0.44197062  0.93438991    -0.17700
H2965       H  0.76457710  0.40665481  0.89837530     0.20300
H2966       H  0.83531318  0.44592296  0.93419133     0.18600
H2967       H  0.86016113  0.41308227  0.90206347     0.18600
H2968       H  0.73987880  0.43738382  0.93071273     0.14500
C2969       C  0.87335499  0.41384103  0.82420981     0.29900
C2970       C  0.87323043  0.42903061  0.80471981    -0.36400
C2971       C  0.89540079  0.43674283  0.79654489     0.15900
C2972       C  0.91638599  0.43000350  0.80676843     0.21700
C2973       C  0.91651310  0.41478442  0.82630199    -0.34600
C2974       C  0.89428115  0.40698750  0.83441649     0.15800
O2975       O  0.85462677  0.40436351  0.83447161    -0.26600
C2976       C  0.86344804  0.39070653  0.85140670     0.05600
C2977       C  0.88820590  0.39203291  0.85220640    -0.31500
O2978       O  0.93506823  0.43909103  0.79598806    -0.23300
C2979       C  0.92594849  0.45192013  0.77857190    -0.03300
C2980       C  0.90131577  0.45107113  0.77824158    -0.17700
H2981       H  0.85693489  0.43434405  0.79635603     0.20300
H2982       H  0.93282368  0.40922777  0.83448776     0.18600
H2983       H  0.90016676  0.38326364  0.86411415     0.18600
H2984       H  0.88950518  0.45962101  0.76601891     0.14500
C2985       C  0.78833087  0.31597244  0.80096071     0.29900
C2986       C  0.80745062  0.33178187  0.80056717    -0.36400
C2987       C  0.81450328  0.34136779  0.82234508     0.15900
C2988       C  0.80364149  0.33579689  0.84324571     0.21700
C2989       C  0.78447277  0.31981268  0.84366649    -0.34600
C2990       C  0.77736810  0.31014540  0.82177582     0.15800
O2991       O  0.77896003  0.30517886  0.78252064    -0.26600
C2992       C  0.76160311  0.29198190  0.79133040     0.05600
C2993       C  0.75994849  0.29431705  0.81582047    -0.31500
O2994       O  0.81344121  0.34672810  0.86154494    -0.23300
C2995       C  0.83083154  0.35977831  0.85231998    -0.03300
C2996       C  0.83217139  0.35677970  0.82784146    -0.17700
H2997       H  0.81627910  0.33631133  0.78431336     0.20300
H2998       H  0.77573309  0.31518678  0.85993504     0.18600
H2999       H  0.74765504  0.28564405  0.82748335     0.18600
H3000       H  0.84465022  0.36440551  0.81566135     0.14500
C3001       C  0.71735426  0.61675998  0.96933331     0.29900
C3002       C  0.72409989  0.59803084  0.95432157    -0.36400
C3003       C  0.73141011  0.57716508  0.96534165     0.15900
C3004       C  0.73175920  0.57498004  0.98946870     0.21700
C3005       C  0.72513245  0.59370174  0.00444501    -0.34600
C3006       C  0.71791919  0.61455666  0.99344962     0.15800
O3007       O  0.71111108  0.63812308  0.96279738    -0.26600
C3008       C  0.70752685  0.64987357  0.98292775     0.05600
C3009       C  0.71141032  0.63599379  0.00264074    -0.31500
O3010       O  0.73730205  0.55352194  0.99612054    -0.23300
C3011       C  0.74090995  0.54166967  0.97611908    -0.03300
C3012       C  0.73765850  0.55554995  0.95627929    -0.17700
H3013       H  0.72367237  0.59964047  0.93537461     0.20300
H3014       H  0.72536947  0.59201189  0.02338807     0.18600
H3015       H  0.71104145  0.64131701  0.02095274     0.18600
H3016       H  0.73775974  0.55002084  0.93802397     0.14500
C3017       C  0.58802713  0.76639314  0.97109512     0.29900
C3018       C  0.56957942  0.77622875  0.95770795    -0.36400
C3019       C  0.54648811  0.77091392  0.96505299     0.15900
C3020       C  0.54211220  0.75697286  0.98430532     0.21700
C3021       C  0.56050894  0.74728203  0.99774173    -0.34600
C3022       C  0.58354531  0.75247648  0.99035405     0.15800
O3023       O  0.61082507  0.76873413  0.96710099    -0.26600
C3024       C  0.62121496  0.75612199  0.98392484     0.05600
C3025       C  0.60505678  0.74562613  0.99902412    -0.31500
O3026       O  0.51941253  0.75405434  0.98810312    -0.23300
C3027       C  0.50877745  0.76619879  0.97115418    -0.03300
C3028       C  0.52481845  0.77717625  0.95618090    -0.17700
H3029       H  0.57302067  0.78710301  0.94253181     0.20300
H3030       H  0.55705429  0.73629243  0.01283010     0.18600
H3031       H  0.60860759  0.73454969  0.01402042     0.18600
H3032       H  0.52112598  0.78815139  0.94114721     0.14500
C3033       C  0.92689975  0.74629462  0.98503731     0.29900
C3034       C  0.90871089  0.75901245  0.97379854    -0.36400
C3035       C  0.88540660  0.75321269  0.98021621     0.15900
C3036       C  0.88058370  0.73607857  0.99657889     0.21700
C3037       C  0.89872493  0.72330667  0.00764360    -0.34600
C3038       C  0.92194563  0.72903609  0.00120637     0.15800
O3039       O  0.94982514  0.74964351  0.98258551    -0.26600
C3040       C  0.95984811  0.73432362  0.99729430     0.05600
C3041       C  0.94325166  0.72084574  0.00923655    -0.31500
O3042       O  0.85776111  0.73347998  0.00022642    -0.23300
C3043       C  0.84749386  0.74900244  0.98599102    -0.03300
C3044       C  0.86389120  0.76192613  0.97306693    -0.17700
H3045       H  0.91249678  0.77268377  0.96118168     0.20300
H3046       H  0.89495874  0.70996342  0.02060617     0.18600
H3047       H  0.94634410  0.70773869  0.02260577     0.18600
H3048       H  0.86048951  0.77560515  0.96034734     0.14500
C3049       C  0.72608596  0.78483633  0.16249888     0.29900
C3050       C  0.71652915  0.79584113  0.14256727    -0.36400
C3051       C  0.71111343  0.78104874  0.12335932     0.15900
C3052       C  0.71486560  0.75704066  0.12353572     0.21700
C3053       C  0.72443909  0.74601899  0.14347342    -0.34600
C3054       C  0.72991014  0.76083459  0.16267080     0.15800
O3055       O  0.73077616  0.79498688  0.18304329    -0.26600
C3056       C  0.73807342  0.77728464  0.19653631     0.05600
C3057       C  0.73784301  0.75570716  0.18464811    -0.31500
O3058       O  0.71029956  0.74695729  0.10292849    -0.23300
C3059       C  0.70338519  0.76475204  0.08931987    -0.03300
C3060       C  0.70345485  0.78628420  0.10132102    -0.17700
H3061       H  0.71345208  0.81465571  0.14206240     0.20300
H3062       H  0.72759814  0.72721389  0.14394455     0.18600
H3063       H  0.74098387  0.73840395  0.19190983     0.18600
H3064       H  0.70050051  0.80364622  0.09412758     0.14500
C3065       C  0.52118799  0.33037341  0.99760055     0.29900
C3066       C  0.53310636  0.34893154  0.98657795    -0.36400
C3067       C  0.51915127  0.36836115  0.98022266     0.15900
C3068       C  0.49513084  0.36948635  0.98434486     0.21700
C3069       C  0.48328725  0.35108931  0.99561096    -0.34600
C3070       C  0.49725387  0.33177233  0.00212392     0.15800
O3071       O  0.53006770  0.30939264  0.00237798    -0.26600
C3072       C  0.51161964  0.29732241  0.01033789     0.05600
C3073       C  0.49087649  0.31054689  0.01083446    -0.31500
O3074       O  0.48572391  0.38968940  0.97778149    -0.23300
C3075       C  0.50396440  0.40173976  0.96937762    -0.03300
C3076       C  0.52518568  0.38927320  0.97040967    -0.17700
H3077       H  0.55183467  0.34807351  0.98274849     0.20300
H3078       H  0.46444069  0.35167965  0.99886478     0.18600
H3079       H  0.47310887  0.30437976  0.01418416     0.18600
H3080       H  0.54274958  0.39540232  0.96609817     0.14500
C3081       C  0.37579007  0.25613071  0.00851493     0.29900
C3082       C  0.39389362  0.24664677  0.02253782    -0.36400
C3083       C  0.41653220  0.24570594  0.01238473     0.15900
C3084       C  0.42095087  0.25383159  0.99002577     0.21700
C3085       C  0.40281219  0.26321291  0.97592557    -0.34600
C3086       C  0.38012711  0.26402681  0.98604878     0.15800
O3087       O  0.35335660  0.25808419  0.01445343    -0.26600
C3088       C  0.34294990  0.26740746  0.99565939     0.05600
C3089       C  0.35879997  0.27152396  0.97733222    -0.31500
O3090       O  0.44352494  0.25247744  0.98444745    -0.23300
C3091       C  0.45385589  0.24309317  0.00328446    -0.03300
C3092       C  0.43783913  0.23838433  0.02126506    -0.17700
H3093       H  0.39052674  0.24045493  0.04018384     0.20300
H3094       H  0.40621525  0.26958874  0.95834945     0.18600
H3095       H  0.35505355  0.27824307  0.95997051     0.18600
H3096       H  0.44152788  0.23190204  0.03872350     0.14500
C3097       C  0.55360080  0.19721534  0.05694914     0.29900
C3098       C  0.56106067  0.19117720  0.07983329    -0.36400
C3099       C  0.57925675  0.17414004  0.08152008     0.15900
C3100       C  0.58937917  0.16354986  0.06206562     0.21700
C3101       C  0.58205043  0.16974354  0.03916877    -0.34600
C3102       C  0.56392000  0.18687855  0.03747744     0.15800
O3103       O  0.53711598  0.21293912  0.05133434    -0.26600
C3104       C  0.53674385  0.21297087  0.02778999     0.05600
C3105       C  0.55319187  0.19689761  0.01835957    -0.31500
O3106       O  0.60579727  0.14774125  0.06771782    -0.23300
C3107       C  0.60638419  0.14806457  0.09126956    -0.03300
C3108       C  0.59029503  0.16450178  0.10062360    -0.17700
H3109       H  0.55323596  0.19925888  0.09531204     0.20300
H3110       H  0.58995763  0.16174885  0.02368722     0.18600
H3111       H  0.55711610  0.19315997  0.00009755     0.18600
H3112       H  0.58702113  0.16851172  0.11898687     0.14500
C3113       C  0.37446712  0.52694427  0.71457919     0.29900
C3114       C  0.39252951  0.53761495  0.70128903    -0.36400
C3115       C  0.41553127  0.53582756  0.71038387     0.15900
C3116       C  0.42022007  0.52413909  0.73101517     0.21700
C3117       C  0.40224335  0.51336827  0.74418411    -0.34600
C3118       C  0.37929759  0.51524114  0.73517908     0.15800
O3119       O  0.35170234  0.52711028  0.70974197    -0.26600
C3120       C  0.34172536  0.51536186  0.72742953     0.05600
C3121       C  0.35812265  0.50738917  0.74374447    -0.31500
O3122       O  0.44289609  0.52353693  0.73583671    -0.23300
C3123       C  0.45318437  0.53498602  0.71819423    -0.03300
C3124       C  0.43694614  0.54326123  0.70180187    -0.17700
H3125       H  0.38887859  0.54667979  0.68501617     0.20300
H3126       H  0.40594969  0.50406092  0.76030790     0.18600
H3127       H  0.35486694  0.49780361  0.75980662     0.18600
H3128       H  0.44047905  0.55212828  0.68538863     0.14500
C3129       C  0.51919873  0.51574440  0.84621373     0.29900
C3130       C  0.52893646  0.53050620  0.82897508    -0.36400
C3131       C  0.52282577  0.52525039  0.80565060     0.15900
C3132       C  0.50836831  0.50657998  0.79997319     0.21700
C3133       C  0.49897164  0.49165262  0.81711566    -0.34600
C3134       C  0.50481837  0.49705115  0.84036787     0.15800
O3135       O  0.52057577  0.51890597  0.86906792    -0.26600
C3136       C  0.50687122  0.50213266  0.87798704     0.05600
C3137       C  0.49672921  0.48779961  0.86095407    -0.31500
O3138       O  0.50345395  0.50570867  0.77751226    -0.23300
C3139       C  0.51478905  0.52397810  0.76838347    -0.03300
C3140       C  0.52740273  0.53681812  0.78505872    -0.17700
H3141       H  0.53959889  0.54563421  0.83353673     0.20300
H3142       H  0.48703449  0.47747301  0.81266667     0.18600
H3143       H  0.48416179  0.47369033  0.86332434     0.18600
H3144       H  0.53748173  0.55276958  0.78259070     0.14500
C3145       C  0.56273111  0.58037848  0.67669691     0.29900
C3146       C  0.58134600  0.59680271  0.67615814    -0.36400
C3147       C  0.58985922  0.60312849  0.65375179     0.15900
C3148       C  0.58085947  0.59381772  0.63325422     0.21700
C3149       C  0.56199703  0.57766396  0.63376738    -0.34600
C3150       C  0.55332555  0.57148937  0.65616471     0.15800
O3151       O  0.55241854  0.57168941  0.69570877    -0.26600
C3152       C  0.53592931  0.55710626  0.68735381     0.05600
C3153       C  0.53563597  0.55652153  0.66279775    -0.31500
O3154       O  0.59122434  0.60244978  0.61425157    -0.23300
C3155       C  0.60702818  0.61789968  0.62247434    -0.03300
C3156       C  0.60684488  0.61884324  0.64712554    -0.17700
H3157       H  0.58867281  0.60419396  0.69212567     0.20300
H3158       H  0.55449394  0.57049601  0.61778260     0.18600
H3159       H  0.52435876  0.54608332  0.65151337     0.18600
H3160       H  0.61698847  0.63014888  0.65863844     0.14500
C3161       C  0.44400783  0.26763696  0.56765273     0.29900
C3162       C  0.43293317  0.25611934  0.58650361    -0.36400
C3163       C  0.44760267  0.25011811  0.60550241     0.15900
C3164       C  0.47147017  0.25498314  0.60587562     0.21700
C3165       C  0.48234845  0.26689938  0.58734217    -0.34600
C3166       C  0.46771125  0.27312048  0.56857100     0.15800
O3167       O  0.43469486  0.27204936  0.54680914    -0.26600
C3168       C  0.45263133  0.28091271  0.53451970     0.05600
C3169       C  0.47340757  0.28222357  0.54738352    -0.31500
O3170       O  0.48185852  0.24800743  0.62537384    -0.23300
C3171       C  0.46445395  0.23853969  0.63782678    -0.03300
C3172       C  0.44271158  0.23945641  0.62633367    -0.17700
H3173       H  0.41439747  0.25153195  0.58609860     0.20300
H3174       H  0.50107326  0.27067944  0.58734144     0.18600
H3175       H  0.49094087  0.28629370  0.54094056     0.18600
H3176       H  0.42558758  0.23415695  0.63292904     0.14500
C3177       C  0.65048036  0.24727245  0.74576824     0.29900
C3178       C  0.63434719  0.23871415  0.72909685    -0.36400
C3179       C  0.61346696  0.22899718  0.73801870     0.15900
C3180       C  0.60881069  0.22773263  0.76178427     0.21700
C3181       C  0.62519715  0.23599080  0.77854596    -0.34600
C3182       C  0.64608166  0.24594802  0.76957209     0.15800
O3183       O  0.67142592  0.25602039  0.74108572    -0.26600
C3184       C  0.68079717  0.26071002  0.76205162     0.05600
C3185       C  0.66575067  0.25482137  0.78055149    -0.31500
O3186       O  0.58723168  0.22008304  0.76611046    -0.23300
C3187       C  0.57793369  0.21627631  0.74486599    -0.03300
C3188       C  0.59365008  0.22129967  0.72672513    -0.17700
H3189       H  0.63776993  0.23979011  0.71039781     0.20300
H3190       H  0.62167373  0.23516764  0.79723951     0.18600
H3191       H  0.66959915  0.25495438  0.79917990     0.18600
H3192       H  0.59020873  0.22144710  0.70801577     0.14500
C3193       C  0.48998835  0.44417173  0.72125257     0.29900
C3194       C  0.47581541  0.42698281  0.73182324    -0.36400
C3195       C  0.48586296  0.40451493  0.73361852     0.15900
C3196       C  0.50821916  0.39937427  0.72526484     0.21700
C3197       C  0.52240815  0.41659146  0.71467312    -0.34600
C3198       C  0.51239121  0.43912673  0.71297989     0.15800
O3199       O  0.48477060  0.46662413  0.71968602    -0.26600
C3200       C  0.50394894  0.47627441  0.71026085     0.05600
C3201       C  0.52172390  0.45994569  0.70539429    -0.31500
O3202       O  0.51365240  0.37699604  0.72760790    -0.23300
C3203       C  0.49467991  0.36765848  0.73779294    -0.03300
C3204       C  0.47681862  0.38399891  0.74215773    -0.17700
H3205       H  0.45831115  0.43097684  0.73850337     0.20300
H3206       H  0.54004890  0.41268744  0.70831411     0.18600
H3207       H  0.53952020  0.46322805  0.69925827     0.18600
H3208       H  0.45926911  0.38091130  0.74906908     0.14500
C3209       C  0.49686864  0.26466977  0.91806718     0.29900
C3210       C  0.48278101  0.27556707  0.90093219    -0.36400
C3211       C  0.49355072  0.27934003  0.87901964     0.15900
C3212       C  0.51659214  0.27275117  0.87443492     0.21700
C3213       C  0.53066776  0.26184790  0.89159247    -0.34600
C3214       C  0.51986871  0.25797589  0.91345960     0.15800
O3215       O  0.49049769  0.26010248  0.93981236    -0.26600
C3216       C  0.50950894  0.25014829  0.94936770     0.05600
C3217       C  0.52838617  0.24820666  0.93371328    -0.31500
O3218       O  0.52249823  0.27593431  0.85228290    -0.23300
C3219       C  0.50312191  0.28480598  0.84235845    -0.03300
C3220       C  0.48450931  0.28748392  0.85827897    -0.17700
H3221       H  0.46459753  0.28049299  0.90439018     0.20300
H3222       H  0.54863572  0.25630650  0.88794816     0.18600
H3223       H  0.54606173  0.24176668  0.93710077     0.18600
H3224       H  0.46640065  0.29240043  0.85462360     0.14500
C3225       C  0.46427347  0.06722562  0.73948168     0.29900
C3226       C  0.47487694  0.08470969  0.72578840    -0.36400
C3227       C  0.47146194  0.10790286  0.73349127     0.15900
C3228       C  0.45852035  0.11338125  0.75340093     0.21700
C3229       C  0.44783332  0.09583229  0.76713844    -0.34600
C3230       C  0.45118545  0.07255634  0.75933190     0.15800
O3231       O  0.46595683  0.04451090  0.73566783    -0.26600
C3232       C  0.45378801  0.03486850  0.75313756     0.05600
C3233       C  0.44398730  0.05148504  0.76849757    -0.31500
O3234       O  0.45793686  0.13616583  0.75759067    -0.23300
C3235       C  0.47063041  0.14544562  0.74018620    -0.03300
C3236       C  0.47948629  0.12867677  0.72454925    -0.17700
H3237       H  0.48528187  0.08045121  0.71031734     0.20300
H3238       H  0.43780917  0.10004567  0.78287099     0.18600
H3239       H  0.43387988  0.04849752  0.78438219     0.18600
H3240       H  0.49033839  0.13135602  0.70909730     0.14500
C3241       C  0.21693528  0.26354068  0.81227169     0.29900
C3242       C  0.20461685  0.27129416  0.83244286    -0.36400
C3243       C  0.21852699  0.27751293  0.85200879     0.15900
C3244       C  0.24286965  0.27610033  0.85192031     0.21700
C3245       C  0.25516219  0.26846034  0.83176659    -0.34600
C3246       C  0.24128054  0.26229218  0.81223637     0.15800
O3247       O  0.20767979  0.25773578  0.79161317    -0.26600
C3248       C  0.22643266  0.25260670  0.77822819     0.05600
C3249       C  0.24768115  0.25512195  0.79028783    -0.31500
O3250       O  0.25222526  0.28126951  0.87263247    -0.23300
C3251       C  0.23362680  0.28630741  0.88620482    -0.03300
C3252       C  0.21225413  0.28434498  0.87417000    -0.17700
H3253       H  0.18552736  0.27238200  0.83289343     0.20300
H3254       H  0.27424462  0.26720375  0.83138037     0.18600
H3255       H  0.26545522  0.25307474  0.78347230     0.18600
H3256       H  0.19453122  0.28601504  0.88122846     0.14500
C3257       C  0.18353538  0.20630919  0.66609758     0.29900
C3258       C  0.17791186  0.20000082  0.64264608    -0.36400
C3259       C  0.16055852  0.18238631  0.63950374     0.15900
C3260       C  0.14965594  0.17150191  0.65816088     0.21700
C3261       C  0.15522572  0.17785125  0.68157186    -0.34600
C3262       C  0.17238054  0.19562239  0.68470490     0.15800
O3263       O  0.19930803  0.22219230  0.67306573    -0.26600
C3264       C  0.19828398  0.22200946  0.69661287     0.05600
C3265       C  0.18167302  0.20564063  0.70467111    -0.31500
O3266       O  0.13432513  0.15518572  0.65131920    -0.23300
C3267       C  0.13512603  0.15546779  0.62778056    -0.03300
C3268       C  0.15117159  0.17230068  0.61958091    -0.17700
H3269       H  0.18651730  0.20824583  0.62782929     0.20300
H3270       H  0.14676384  0.16945631  0.69638615     0.18600
H3271       H  0.17721762  0.20124977  0.72260385     0.18600
H3272       H  0.15554705  0.17621693  0.60148775     0.14500
C3273       C  0.24383728  0.33538738  0.73358847     0.29900
C3274       C  0.25268359  0.35302369  0.74851115    -0.36400
C3275       C  0.25969480  0.37394266  0.73768984     0.15900
C3276       C  0.25815417  0.37724770  0.71374979     0.21700
C3277       C  0.24935027  0.35947413  0.69873255    -0.34600
C3278       C  0.24212714  0.33851063  0.70963306     0.15800
O3279       O  0.23750835  0.31418487  0.74009489    -0.26600
C3280       C  0.23141896  0.30332974  0.72021720     0.05600
C3281       C  0.23370694  0.31769057  0.70055715    -0.31500
O3282       O  0.26390309  0.39887474  0.70766798    -0.23300
C3283       C  0.26918544  0.40958964  0.72794856    -0.03300
C3284       C  0.26707365  0.39478298  0.74721408    -0.17700
H3285       H  0.25389048  0.35060753  0.76733206     0.20300
H3286       H  0.24790011  0.36197187  0.67994271     0.18600
H3287       H  0.23140143  0.31291812  0.68225172     0.18600
H3288       H  0.26869811  0.39928073  0.76566615     0.14500
C3289       C  0.35365764  0.27664742  0.72369902     0.29900
C3290       C  0.33599870  0.27167173  0.70708307    -0.36400
C3291       C  0.31655020  0.25875421  0.71520389     0.15900
C3292       C  0.31455913  0.25145681  0.73819015     0.21700
C3293       C  0.33242425  0.25611558  0.75473326    -0.34600
C3294       C  0.35188753  0.26906213  0.74660528     0.15800
O3295       O  0.37370911  0.28758502  0.71954196    -0.26600
C3296       C  0.38508573  0.28718287  0.74002852     0.05600
C3297       C  0.37222744  0.27596898  0.75761805    -0.31500
O3298       O  0.29354255  0.24263801  0.74281805    -0.23300
C3299       C  0.28197810  0.24374695  0.72246414    -0.03300
C3300       C  0.29556547  0.25351291  0.70459901    -0.17700
H3301       H  0.33718763  0.27777982  0.68913373     0.20300
H3302       H  0.33091296  0.25062213  0.77285913     0.18600
H3303       H  0.37785242  0.27178609  0.77527942     0.18600
H3304       H  0.28972993  0.25894481  0.68735312     0.14500
C3305       C  0.02234772  0.01407954  0.80719458     0.29900
C3306       C  0.03381692  0.00294171  0.82604958    -0.36400
C3307       C  0.01903740  0.99363969  0.84367813     0.15900
C3308       C  0.99471196  0.99489319  0.84268184     0.21700
C3309       C  0.98335653  0.00618308  0.82402153    -0.34600
C3310       C  0.99807119  0.01597274  0.80682565     0.15800
O3311       O  0.03225624  0.02196084  0.78761044    -0.26600
C3312       C  0.01401142  0.02949094  0.77485620     0.05600
C3313       C  0.99248068  0.02660137  0.78635059    -0.31500
O3314       O  0.98434138  0.98688608  0.86186480    -0.23300
C3315       C  0.00218125  0.98046049  0.87559632    -0.03300
C3316       C  0.02418704  0.98412891  0.86500825    -0.17700
H3317       H  0.05287295  0.00161851  0.82693945     0.20300
H3318       H  0.96430596  0.00758072  0.82313941     0.18600
H3319       H  0.97494353  0.02901752  0.77918267     0.18600
H3320       H  0.04146956  0.98245720  0.87293708     0.14500
C3321       C  0.87877767  0.02215383  0.72164348     0.29900
C3322       C  0.89642819  0.03458833  0.70936334    -0.36400
C3323       C  0.91992293  0.02985770  0.71584885     0.15900
C3324       C  0.92538505  0.01406831  0.73331164     0.21700
C3325       C  0.90780334  0.00174491  0.74561623    -0.34600
C3326       C  0.88439405  0.00631184  0.73902781     0.15800
O3327       O  0.85578603  0.02374073  0.71831731    -0.26600
C3328       C  0.84643319  0.00865737  0.73364882     0.05600
C3329       C  0.86347286  0.99724609  0.74704651    -0.31500
O3330       O  0.94826774  0.01185791  0.73638383    -0.23300
C3331       C  0.95797521  0.02630317  0.72074263    -0.03300
C3332       C  0.94110170  0.03815207  0.70740761    -0.17700
H3333       H  0.89212297  0.04692522  0.69559116     0.20300
H3334       H  0.91214244  0.98926066  0.75924709     0.18600
H3335       H  0.86084397  0.98437147  0.76074140     0.18600
H3336       H  0.94395976  0.05071636  0.69347710     0.14500
C3337       C  0.01026717  0.94101706  0.73927529     0.29900
C3338       C  0.00122993  0.92358620  0.75419683    -0.36400
C3339       C  0.00284631  0.90037494  0.74584106     0.15900
C3340       C  0.01310630  0.89484970  0.72445632     0.21700
C3341       C  0.02236301  0.91228088  0.70963897    -0.34600
C3342       C  0.02041978  0.93554754  0.71783538     0.15800
O3343       O  0.00860504  0.96381450  0.74278157    -0.26600
C3344       C  0.01772265  0.97330426  0.72342954     0.05600
C3345       C  0.02563602  0.95652363  0.70725033    -0.31500
O3346       O  0.01228097  0.87218500  0.71977242    -0.23300
C3347       C  0.00121309  0.86295740  0.73823882    -0.03300
C3348       C  0.99484784  0.87968355  0.75511603    -0.17700
H3349       H  0.99278286  0.92793939  0.77078324     0.20300
H3350       H  0.02988585  0.90802371  0.69260052     0.18600
H3351       H  0.03271433  0.95931843  0.68979460     0.18600
H3352       H  0.98573466  0.87701061  0.77164212     0.14500
C3353       C  0.07919890  0.11066270  0.65138153     0.29900
C3354       C  0.05986565  0.10951465  0.66707143    -0.36400
C3355       C  0.05394069  0.08698939  0.67560431     0.15900
C3356       C  0.06613210  0.06689353  0.66911630     0.21700
C3357       C  0.08558975  0.06807885  0.65359782    -0.34600
C3358       C  0.09148248  0.09060440  0.64510015     0.15800
O3359       O  0.08758282  0.12982387  0.64106248    -0.26600
C3360       C  0.10553709  0.12211462  0.62765691     0.05600
C3361       C  0.10876785  0.09768611  0.62992050    -0.31500
O3362       O  0.05751144  0.04766783  0.67910335    -0.23300
C3363       C  0.03951900  0.05544776  0.69238743    -0.03300
C3364       C  0.03662434  0.07984600  0.69084225    -0.17700
H3365       H  0.05003986  0.12511818  0.67222113     0.20300
H3366       H  0.09542519  0.05248662  0.64841159     0.18600
H3367       H  0.12199352  0.08651822  0.62170712     0.18600
H3368       H  0.02360005  0.09072999  0.69974914     0.14500
C3369       C  0.74837410  0.82318718  0.72777163     0.29900
C3370       C  0.75748575  0.84127431  0.74189999    -0.36400
C3371       C  0.76270635  0.86232836  0.73044784     0.15900
C3372       C  0.75892853  0.86543292  0.70672768     0.21700
C3373       C  0.74983535  0.84723234  0.69250889    -0.34600
C3374       C  0.74466488  0.82605160  0.70400424     0.15800
O3375       O  0.74353053  0.80181690  0.73483663    -0.26600
C3376       C  0.73645530  0.79062792  0.71551731     0.05600
C3377       C  0.73658216  0.80487377  0.69567040    -0.31500
O3378       O  0.76275248  0.88729754  0.70021821    -0.23300
C3379       C  0.76934420  0.89828973  0.71992853    -0.03300
C3380       C  0.76982946  0.88349431  0.73928738    -0.17700
H3381       H  0.76021485  0.83907596  0.76058675     0.20300
H3382       H  0.74665741  0.84957307  0.67391311     0.18600
H3383       H  0.73303443  0.79989857  0.67761995     0.18600
H3384       H  0.77229911  0.88824525  0.75758548     0.14500
C3385       C  0.82215698  0.75406355  0.71453633     0.29900
C3386       C  0.83997689  0.76911211  0.70642457    -0.36400
C3387       C  0.85804432  0.77446281  0.72244133     0.15900
C3388       C  0.85896282  0.76535083  0.74483194     0.21700
C3389       C  0.84101268  0.75037566  0.75303386    -0.34600
C3390       C  0.82275497  0.74519269  0.73704208     0.15800
O3391       O  0.80245316  0.74871879  0.70329492    -0.26600
C3392       C  0.79023953  0.73593097  0.71861427     0.05600
C3393       C  0.80206076  0.73333230  0.73994386    -0.31500
O3394       O  0.87855741  0.77131746  0.75610001    -0.23300
C3395       C  0.89019167  0.78469823  0.74076340    -0.03300
C3396       C  0.87797466  0.78741201  0.71969419    -0.17700
H3397       H  0.83960375  0.77645758  0.68891918     0.20300
H3398       H  0.84121183  0.74330665  0.77065644     0.18600
H3399       H  0.79516641  0.72607374  0.75612080     0.18600
H3400       H  0.88397018  0.79593533  0.70379917     0.14500
C3401       C  0.74036016  0.72613646  0.80653736     0.29900
C3402       C  0.74594772  0.71337854  0.82684525    -0.36400
C3403       C  0.75266923  0.72676555  0.84660889     0.15900
C3404       C  0.75376215  0.75104406  0.84660388     0.21700
C3405       C  0.74825332  0.76378705  0.82628041    -0.34600
C3406       C  0.74148634  0.75040917  0.80654627     0.15800
O3407       O  0.73498445  0.71723808  0.78563049    -0.26600
C3408       C  0.73249306  0.73613033  0.77210715     0.05600
C3409       C  0.73617433  0.75716330  0.78434269    -0.31500
O3410       O  0.75869963  0.76000204  0.86758490    -0.23300
C3411       C  0.76092186  0.74116906  0.88123148    -0.03300
C3412       C  0.75755716  0.72006718  0.86894462    -0.17700
H3413       H  0.74510932  0.69434408  0.82723897     0.20300
H3414       H  0.74896228  0.78282805  0.82592157     0.18600
H3415       H  0.73652847  0.77487325  0.77742579     0.18600
H3416       H  0.75686635  0.70238934  0.87593017     0.14500
C3417       C  0.68250704  0.70008469  0.66388552     0.29900
C3418       C  0.66410360  0.70095329  0.64724566    -0.36400
C3419       C  0.65628325  0.67923817  0.63802838     0.15900
C3420       C  0.66594507  0.65801693  0.64458862     0.21700
C3421       C  0.68435383  0.65711055  0.66137447    -0.34600
C3422       C  0.69211853  0.67890379  0.67075338     0.15800
O3423       O  0.69228625  0.71835744  0.67466776    -0.26600
C3424       C  0.70852206  0.70905095  0.68890884     0.05600
C3425       C  0.70904977  0.68442189  0.68722885    -0.31500
O3426       O  0.65556650  0.63985474  0.63403654    -0.23300
C3427       C  0.63874813  0.64939867  0.62049776    -0.03300
C3428       C  0.63862617  0.67404376  0.62243665    -0.17700
H3429       H  0.65626265  0.71749578  0.64195759     0.20300
H3430       H  0.69195172  0.64053633  0.66690050     0.18600
H3431       H  0.72033461  0.67238112  0.69672367     0.18600
H3432       H  0.62686657  0.68650657  0.61413948     0.14500
C3433       C  0.81200814  0.00229173  0.97971751     0.29900
C3434       C  0.82888831  0.99641368  0.96247826    -0.36400
C3435       C  0.84892209  0.98432154  0.97042570     0.15900
C3436       C  0.85195758  0.97843602  0.99371489     0.21700
C3437       C  0.83527604  0.98463604  0.01098364    -0.34600
C3438       C  0.81536343  0.99687722  0.00308787     0.15800
O3439       O  0.79090521  0.01112307  0.97580581    -0.26600
C3440       C  0.78079044  0.01185308  0.99695518     0.05600
C3441       C  0.79524208  0.00339913  0.01469042    -0.31500
O3442       O  0.87233151  0.96803839  0.99750944    -0.23300
C3443       C  0.88270221  0.96734920  0.97648226    -0.03300
C3444       C  0.86886538  0.97707706  0.95882713    -0.17700
H3445       H  0.82634910  0.00058211  0.94411447     0.20300
H3446       H  0.83761540  0.98008815  0.02928194     0.18600
H3447       H  0.79056136  0.99991333  0.03280480     0.18600
H3448       H  0.87355337  0.98004458  0.94062082     0.14500
C3449       C  0.75605609  0.01468271  0.87154266     0.29900
C3450       C  0.75303008  0.03057306  0.89042096    -0.36400
C3451       C  0.74107584  0.02193833  0.91023578     0.15900
C3452       C  0.73301206  0.99910421  0.91147768     0.21700
C3453       C  0.73607623  0.98318697  0.89260162    -0.34600
C3454       C  0.74791224  0.99186572  0.87272226     0.15800
O3455       O  0.76528169  0.01957940  0.85083540    -0.26600
C3456       C  0.76338844  0.99958776  0.83855241     0.05600
C3457       C  0.75273365  0.98166656  0.85134131    -0.31500
O3458       O  0.72390018  0.99423113  0.93226007    -0.23300
C3459       C  0.72548312  0.01434613  0.94440479    -0.03300
C3460       C  0.73619587  0.03218145  0.93157017    -0.17700
H3461       H  0.75941392  0.04849256  0.88963084     0.20300
H3462       H  0.72975792  0.96524530  0.89341438     0.18600
H3463       H  0.74751281  0.96438524  0.84516086     0.18600
H3464       H  0.74163892  0.04937600  0.93779362     0.14500
C3465       C  0.73621820  0.92447898  0.01027417     0.29900
C3466       C  0.74517975  0.90487569  0.02252867    -0.36400
C3467       C  0.75282683  0.88556359  0.00863864     0.15900
C3468       C  0.75174348  0.88550978  0.98440634     0.21700
C3469       C  0.74260628  0.90490811  0.97224943    -0.34600
C3470       C  0.73484875  0.92404681  0.98607380     0.15800
O3471       O  0.73012632  0.94529976  0.01933300    -0.26600
C3472       C  0.72448527  0.95822278  0.00061135     0.05600
C3473       C  0.72689663  0.94562898  0.97960562    -0.31500
O3474       O  0.75887473  0.86535673  0.97489619    -0.23300
C3475       C  0.76473275  0.85213153  0.99322436    -0.03300
C3476       C  0.76136555  0.86389506  0.01467631    -0.17700
H3477       H  0.74641840  0.90478741  0.04151531     0.20300
H3478       H  0.74168879  0.90512085  0.95324447     0.18600
H3479       H  0.72521509  0.95220320  0.96186408     0.18600
H3480       H  0.76337016  0.85690634  0.03222290     0.14500
C3481       C  0.66661587  0.09746743  0.07496712     0.29900
C3482       C  0.68954926  0.09004854  0.06834878    -0.36400
C3483       C  0.69114196  0.07122043  0.05202534     0.15900
C3484       C  0.67159114  0.06027738  0.04277080     0.21700
C3485       C  0.64859284  0.06770490  0.04942188    -0.34600
C3486       C  0.64697192  0.08662857  0.06572604     0.15800
O3487       O  0.66113172  0.11472070  0.08995938    -0.26600
C3488       C  0.63747982  0.11528876  0.09043002     0.05600
C3489       C  0.62785385  0.09800636  0.07561515    -0.31500
O3490       O  0.67728254  0.04310308  0.02765566    -0.23300
C3491       C  0.70096024  0.04283047  0.02714041    -0.03300
C3492       C  0.71031847  0.06020116  0.04208624    -0.17700
H3493       H  0.70514969  0.09843115  0.07542161     0.20300
H3494       H  0.63299653  0.05935365  0.04231747     0.18600
H3495       H  0.60935076  0.09429883  0.07272626     0.18600
H3496       H  0.72858273  0.06459930  0.04523788     0.14500
loop_ 
_geom_bond_atom_site_label_1 
_geom_bond_atom_site_label_2 
_geom_bond_distance 
_geom_bond_site_symmetry_2 
_ccdc_geom_bond_type 
C1            C2   1.553       .  S
C1            C7   1.561   1_545  S
C1            C5   1.558   1_554  S
C1         C3491   1.549       .  S
C2            H9   1.082       .  S
C2            C3   1.363   1_554  D
C3            C4   1.518   1_545  S
C3         C3440   1.464       .  S
C4            C8   1.525   1_556  S
C4            C6   1.514   1_565  S
C4           H10   1.112       .  S
C5           H11   1.085       .  S
C5            C6   1.373       .  D
C6         C3459   1.479       .  S
C7           H12   1.085       .  S
C7            C8   1.378       .  D
C8         C3472   1.490       .  S
C13          C14   1.557       .  S
C13          C19   1.555       .  S
C13          C17   1.555       .  S
C13        C3424   1.540       .  S
C14          H21   1.085       .  S
C14          C15   1.373       .  D
C15          C16   1.519       .  S
C15        C3408   1.482       .  S
C16          C20   1.520       .  S
C16          C18   1.520       .  S
C16          H22   1.111       .  S
C17          H23   1.085       .  S
C17          C18   1.367       .  D
C18        C3376   1.474       .  S
C19          H24   1.085       .  S
C19          C20   1.374       .  D
C20        C3392   1.478       .  S
C25          C26   1.555       .  S
C25          C31   1.556       .  S
C25          C29   1.558   1_455  S
C25        C3363   1.534       .  S
C26          H33   1.085       .  S
C26          C27   1.371   1_545  D
C27          C28   1.520   1_465  S
C27        C3344   1.480       .  S
C28          C32   1.519   1_655  S
C28          C30   1.522       .  S
C28          H34   1.109       .  S
C29          H35   1.085       .  S
C29          C30   1.373       .  D
C30        C3331   1.490       .  S
C31          H36   1.086       .  S
C31          C32   1.369       .  D
C32        C3312   1.478       .  S
C37          C38   1.552       .  S
C37          C43   1.555       .  S
C37          C41   1.566       .  S
C37        C3264   1.548       .  S
C38          H45   1.086       .  S
C38          C39   1.369       .  D
C39          C40   1.518       .  S
C39        C3299   1.476       .  S
C40          C44   1.525       .  S
C40          C42   1.519       .  S
C40          H46   1.112       .  S
C41          H47   1.083       .  S
C41          C42   1.373       .  D
C42        C3248   1.488       .  S
C43          H48   1.085       .  S
C43          C44   1.374       .  D
C44        C3280   1.480       .  S
Zr49         O50   2.439       .  S
Zr49         O51   2.468       .  S
Zr49         O52   2.492       .  S
Zr49         O55   2.487       .  S
Zr49         O57   2.400       .  S
Zr49         O58   2.408       .  S
Zr49         O59   2.419       .  S
Zr49         O60   2.410       .  S
O50         H106   0.990       .  S
O50         H114   0.991       .  S
O51          C71   1.290       .  A
O52          C73   1.294       .  A
O53         Zr63   2.406       .  S
O53          C72   1.269       .  A
O54         Zr62   2.408       .  S
O54          C73   1.279       .  A
O55          C72   1.290       .  A
O56         Zr64   2.387       .  S
O56          C71   1.275       .  A
O57         Zr62   2.388       .  S
O57         Zr64   2.385       .  S
O58         Zr63   2.399       .  S
O58         Zr64   2.380       .  S
O58          H93   0.966       .  S
O59         Zr62   2.395       .  S
O59         Zr79   2.370       .  S
O59          H96   0.963       .  S
O60         Zr63   2.383       .  S
O60         Zr79   2.373       .  S
Zr61         O86   2.439       .  S
Zr61         O80   2.475       .  S
Zr61         O88   2.485       .  S
Zr61         O76   2.475       .  S
Zr61         O67   2.412       .  S
Zr61         O68   2.445       .  S
Zr61         O69   2.398       .  S
Zr61         O70   2.397       .  S
Zr62         O81   2.437       .  S
Zr62         O74   2.436       .  S
Zr62         O75   2.410       .  S
Zr62         O68   2.398       .  S
Zr62         O69   2.399       .  S
Zr63         O65   2.435       .  S
Zr63         O87   2.439       .  S
Zr63         O89   2.403       .  S
Zr63         O67   2.388       .  S
Zr63         O70   2.393       .  S
Zr64         O90   2.436       .  S
Zr64         O91   2.438       .  S
Zr64         O66   2.442       .  S
Zr64         O67   2.383       .  S
Zr64         O68   2.379       .  S
O65         H102   0.990       .  S
O66          H97   0.990       .  S
O66         H111   0.990       .  S
O68          H94   0.965       .  S
O69         Zr79   2.375       .  S
O70         Zr79   2.377       .  S
O70          H95   0.965       .  S
C71        C3203   1.467       .  S
C72        C3296   1.477       .  S
C73        C3219   1.476       .  S
O74         H110   0.990       .  S
O75          C77   1.270       .  A
O76          C77   1.287       .  A
C77        C3187   1.480       .  S
O78         Zr79   2.433       .  S
O78         H107   0.990       .  S
Zr79         O82   2.435       .  S
Zr79         O83   2.438       .  S
Zr79         O84   2.379       .  S
O80          C85   1.291       .  A
O81          H98   0.990       .  S
O81         H113   0.990       .  S
O82          H99   0.990       .  S
O83         H103   0.990       .  S
O83         H112   0.990       .  S
O84          C85   1.273       .  A
C85        C3235   1.470       .  S
O86         H105   0.990       .  S
O86         H109   0.990       .  S
O87         H101   0.990       .  S
O87         H108   0.990       .  S
O88          C92   1.292       .  A
O89          C92   1.273       .  A
O90         H100   0.989       .  S
O91         H104   0.990       .  S
C92        C3171   1.472       .  S
C115        C116   1.553       .  S
C115        C121   1.556       .  S
C115        C119   1.552       .  S
C115       C3152   1.529       .  S
C116        H123   1.085       .  S
C116        C117   1.369       .  D
C117        C118   1.523       .  S
C117       C3139   1.478       .  S
C118        C122   1.521       .  S
C118        C120   1.519       .  S
C118        H124   1.110       .  S
C119        H125   1.086       .  S
C119        C120   1.368       .  D
C120       C3200   1.474       .  S
C121        H126   1.085       .  S
C121        C122   1.373       .  D
C122       C3123   1.487       .  S
C127        C128   1.548       .  S
C127        C133   1.560   1_554  S
C127        C131   1.562       .  S
C127       C3104   1.545       .  S
C128        H135   1.086       .  S
C128        C129   1.366       .  D
C129        C130   1.523   1_554  S
C129       C3072   1.470       .  S
C130        C134   1.519       .  S
C130        C132   1.517   1_556  S
C130        H136   1.111       .  S
C131        H137   1.085       .  S
C131        C132   1.377       .  D
C132       C3091   1.488       .  S
C133        H138   1.083       .  S
C133        C134   1.372       .  D
C134       C3216   1.481       .  S
Zr139       O140   2.438       .  S
Zr139       O141   2.491       .  S
Zr139       O142   2.478       .  S
Zr139       O145   2.492       .  S
Zr139       O147   2.394   1_556  S
Zr139       O148   2.398       .  S
Zr139       O149   2.442       .  S
Zr139       O150   2.410       .  S
O140        H196   0.990       .  S
O140        H204   0.990       .  S
O141        C161   1.293       .  A
O142        C163   1.288       .  A
O143       Zr153   2.394       .  S
O143        C162   1.277       .  A
O144       Zr152   2.413       .  S
O144        C163   1.273   1_554  A
O145        C162   1.295       .  A
O146       Zr154   2.396   1_556  S
O146        C161   1.277       .  A
O147       Zr152   2.402       .  S
O147       Zr154   2.375       .  S
O148       Zr153   2.392       .  S
O148       Zr154   2.380   1_556  S
O148        H183   0.963       .  S
O149       Zr152   2.401   1_556  S
O149       Zr169   2.379       .  S
O149        H186   0.964       .  S
O150       Zr153   2.386       .  S
O150       Zr169   2.383       .  S
Zr151       O176   2.439       .  S
Zr151       O170   2.494       .  S
Zr151       O178   2.491       .  S
Zr151       O166   2.493       .  S
Zr151       O157   2.415   1_554  S
Zr151       O158   2.428       .  S
Zr151       O159   2.398       .  S
Zr151       O160   2.401   1_554  S
Zr152       O171   2.440       .  S
Zr152       O164   2.435       .  S
Zr152       O165   2.423       .  S
Zr152       O158   2.394       .  S
Zr152       O159   2.390       .  S
Zr153       O155   2.438       .  S
Zr153       O177   2.435       .  S
Zr153       O179   2.403       .  S
Zr153       O157   2.382       .  S
Zr153       O160   2.397       .  S
Zr154       O180   2.435       .  S
Zr154       O181   2.437       .  S
Zr154       O156   2.437       .  S
Zr154       O157   2.390   1_554  S
Zr154       O158   2.375       .  S
O155        H192   0.990       .  S
O156        H187   0.990       .  S
O156        H201   0.990       .  S
O158        H184   0.963       .  S
O159       Zr169   2.387   1_554  S
O160       Zr169   2.378       .  S
O160        H185   0.966       .  S
C161       C3043   1.485       .  S
C162       C3411   1.478       .  S
C163       C3475   1.482       .  S
O164        H200   0.990       .  S
O165        C167   1.282       .  A
O166        C167   1.294       .  A
C167       C3059   1.483       .  S
O168       Zr169   2.436       .  S
O168        H197   0.990       .  S
Zr169       O172   2.437       .  S
Zr169       O173   2.438       .  S
Zr169       O174   2.385       .  S
O170        C175   1.295   1_554  A
O171        H188   0.990       .  S
O171        H203   0.989       .  S
O172        H189   0.991       .  S
O173        H193   0.990       .  S
O173        H202   0.989       .  S
O174        C175   1.274       .  A
C175       C3024   1.480       .  S
O176        H195   0.991       .  S
O176        H199   0.990       .  S
O177        H191   0.989       .  S
O177        H198   0.990       .  S
O178        C182   1.292   1_554  A
O179        C182   1.272       .  A
O180        H190   0.990       .  S
O181        H194   0.990       .  S
C182       C3008   1.479       .  S
C205       C2947   1.549       .  S
C205       C2960   1.549       .  S
C205       C2976   1.551       .  S
C205       C2995   1.557       .  S
C206        C207   1.553       .  S
C206        C212   1.552       .  S
C206        C210   1.549       .  S
C206       C2979   1.529       .  S
C207        H214   1.085       .  S
C207        C208   1.373       .  D
C208        C209   1.525       .  S
C208       C2928   1.483   1_655  S
C209        C213   1.518       .  S
C209        C211   1.526       .  S
C209        H215   1.108       .  S
C210        H216   1.086       .  S
C210        C211   1.369       .  D
C211       C2912   1.479       .  S
C212        H217   1.086       .  S
C212        C213   1.367       .  D
C213       C2896   1.470       .  S
C218        C219   1.555       .  S
C218        C224   1.559       .  S
C218        C222   1.558       .  S
C218       C2963   1.547       .  S
C219        H226   1.086       .  S
C219        C220   1.371       .  D
C220        C221   1.519       .  S
C220       C3011   1.480       .  S
C221        C225   1.519       .  S
C221        C223   1.524   1_556  S
C221        H227   1.112   1_556  S
C222        H228   1.085   1_556  S
C222        C223   1.375   1_556  D
C223       C2880   1.485       .  S
C224        H229   1.083       .  S
C224        C225   1.369       .  D
C225       C2864   1.475       .  S
C230        C231   1.555       .  S
C230        C236   1.550       .  S
C230        C234   1.554       .  S
C230       C2848   1.532       .  S
C231        H238   1.083       .  S
C231        C232   1.365       .  D
C232        C233   1.516       .  S
C232       C2803   1.466       .  S
C233        C237   1.523       .  S
C233        C235   1.522       .  S
C233        H239   1.111       .  S
C234        H240   1.085       .  S
C234        C235   1.370       .  D
C235       C2816   1.478       .  S
C236        H241   1.086       .  S
C236        C237   1.370       .  D
C237       C2832   1.475   1_545  S
C242       C2787   1.550       .  S
C242       C2851   1.547       .  S
C242       C3267   1.550       .  S
C242       C3360   1.553       .  S
C243        C244   1.564   1_455  S
C243        C249   1.547       .  S
C243        C247   1.556   1_554  S
C243       C2768   1.540       .  S
C244        H251   1.084       .  S
C244        C245   1.376       .  D
C245        C246   1.520   1_654  S
C245       C3040   1.493   1_554  S
C246        C250   1.522   1_556  S
C246        C248   1.525       .  S
C246        H252   1.110   1_455  S
C247        H253   1.085       .  S
C247        C248   1.376       .  D
C248       C2752   1.487       .  S
C249        H254   1.086       .  S
C249        C250   1.363       .  D
C250       C2736   1.468       .  S
C255        C256   1.549   1_554  S
C255        C261   1.556       .  S
C255        C259   1.554       .  S
C255       C2704   1.531       .  S
C256        H263   1.085       .  S
C256        C257   1.370       .  D
C257        C258   1.525       .  S
C257       C2691   1.478       .  S
C258        C262   1.519   1_556  S
C258        C260   1.521   1_556  S
C258        H264   1.110       .  S
C259        H265   1.086       .  S
C259        C260   1.370       .  D
C260       C2720   1.483       .  S
C261        H266   1.085       .  S
C261        C262   1.371       .  D
C262       C2675   1.473   1_554  S
C267        C268   1.555       .  S
C267        C273   1.558       .  S
C267        C271   1.555       .  S
C267       C2656   1.538       .  S
C268        H275   1.085       .  S
C268        C269   1.368       .  D
C269        C270   1.522       .  S
C269       C2640   1.475       .  S
C270        C274   1.521       .  S
C270        C272   1.517       .  S
C270        H276   1.112       .  S
C271        H277   1.085       .  S
C271        C272   1.370       .  D
C272       C2611   1.475       .  S
C273        H278   1.085       .  S
C273        C274   1.375       .  D
C274       C2624   1.483       .  S
C279       C2592   1.545       .  S
C279       C2659   1.556       .  S
C279       C2707   1.547       .  S
C279       C2771   1.550       .  S
C280        C281   1.560       .  S
C280        C286   1.546       .  S
C280        C284   1.550       .  S
C280       C2547   1.521       .  S
C281        H288   1.085       .  S
C281        C282   1.374       .  D
C282        C283   1.517       .  S
C282       C2576   1.482       .  S
C283        C287   1.520       .  S
C283        C285   1.522       .  S
C283        H289   1.110       .  S
C284        H290   1.086       .  S
C284        C285   1.366       .  D
C285       C2560   1.476       .  S
C286        H291   1.086       .  S
C286        C287   1.365       .  D
C287       C2528   1.465       .  S
Zr292       O293   2.439       .  S
Zr292       O294   2.463       .  S
Zr292       O295   2.474       .  S
Zr292       O298   2.492       .  S
Zr292       O300   2.397       .  S
Zr292       O301   2.405       .  S
Zr292       O302   2.433       .  S
Zr292       O303   2.399       .  S
O293        H349   0.990       .  S
O293        H357   0.990       .  S
O294        C314   1.287       .  A
O295        C316   1.288       .  A
O296       Zr306   2.403       .  S
O296        C315   1.279       .  A
O297       Zr305   2.413       .  S
O297        C316   1.274       .  A
O298        C315   1.295       .  A
O299       Zr307   2.375       .  S
O299        C314   1.274       .  A
O300       Zr305   2.394       .  S
O300       Zr307   2.381       .  S
O301       Zr306   2.390       .  S
O301       Zr307   2.383       .  S
O301        H336   0.966       .  S
O302       Zr305   2.396       .  S
O302       Zr322   2.378       .  S
O302        H339   0.964       .  S
O303       Zr306   2.377       .  S
O303       Zr322   2.370       .  S
Zr304       O329   2.438       .  S
Zr304       O323   2.481       .  S
Zr304       O331   2.485       .  S
Zr304       O319   2.496       .  S
Zr304       O310   2.414       .  S
Zr304       O311   2.423       .  S
Zr304       O312   2.395       .  S
Zr304       O313   2.406       .  S
Zr305       O324   2.434       .  S
Zr305       O317   2.435       .  S
Zr305       O318   2.411       .  S
Zr305       O311   2.398       .  S
Zr305       O312   2.390       .  S
Zr306       O308   2.436       .  S
Zr306       O330   2.437       .  S
Zr306       O332   2.405       .  S
Zr306       O310   2.378       .  S
Zr306       O313   2.402       .  S
Zr307       O333   2.437       .  S
Zr307       O334   2.438       .  S
Zr307       O309   2.436       .  S
Zr307       O310   2.374       .  S
Zr307       O311   2.375       .  S
O308        H345   0.991       .  S
O309        H340   0.990       .  S
O309        H354   0.990       .  S
O311        H337   0.963       .  S
O312       Zr322   2.387       .  S
O313       Zr322   2.378       .  S
O313        H338   0.968       .  S
C314       C2835   1.467       .  S
C315       C2579   1.475       .  S
C316       C2627   1.478       .  S
O317        H353   0.990       .  S
O318        C320   1.279       .  A
O319        C320   1.297       .  A
C320       C2515   1.481       .  S
O321       Zr322   2.440       .  S
O321        H350   0.990       .  S
Zr322       O325   2.437       .  S
Zr322       O326   2.440       .  S
Zr322       O327   2.380       .  S
O323        C328   1.292       .  A
O324        H341   0.990       .  S
O324        H356   0.990       .  S
O325        H342   0.990       .  S
O326        H346   0.990       .  S
O326        H355   0.990       .  S
O327        C328   1.274       .  A
C328       C2480   1.472       .  S
O329        H348   0.991       .  S
O329        H352   0.990       .  S
O330        H344   0.990       .  S
O330        H351   0.990       .  S
O331        C335   1.290       .  A
O332        C335   1.270       .  A
O333        H343   0.991       .  S
O334        H347   0.990       .  S
C335       C2496   1.477       .  S
Zr358       O359   2.438       .  S
Zr358       O360   2.484       .  S
Zr358       O361   2.470       .  S
Zr358       O364   2.488       .  S
Zr358       O366   2.392       .  S
Zr358       O367   2.398       .  S
Zr358       O368   2.443       .  S
Zr358       O369   2.404       .  S
O359        H415   0.990       .  S
O359        H423   0.990       .  S
O360        C380   1.292       .  A
O361        C382   1.286       .  A
O362       Zr372   2.396       .  S
O362        C381   1.277       .  A
O363       Zr371   2.406       .  S
O363        C382   1.271       .  A
O364        C381   1.294       .  A
O365       Zr373   2.394       .  S
O365        C380   1.274       .  A
O366       Zr371   2.400       .  S
O366       Zr373   2.377       .  S
O367       Zr372   2.398       .  S
O367       Zr373   2.387       .  S
O367        H402   0.967       .  S
O368       Zr371   2.397       .  S
O368       Zr388   2.387       .  S
O368        H405   0.965       .  S
O369       Zr372   2.379       .  S
O369       Zr388   2.379       .  S
Zr370       O395   2.439       .  S
Zr370       O389   2.468       .  S
Zr370       O397   2.487       .  S
Zr370       O385   2.472       .  S
Zr370       O376   2.411       .  S
Zr370       O377   2.425       .  S
Zr370       O378   2.394       .  S
Zr370       O379   2.398       .  S
Zr371       O390   2.435       .  S
Zr371       O383   2.434       .  S
Zr371       O384   2.405       .  S
Zr371       O377   2.403       .  S
Zr371       O378   2.385       .  S
Zr372       O374   2.437       .  S
Zr372       O396   2.437       .  S
Zr372       O398   2.402       .  S
Zr372       O376   2.387       .  S
Zr372       O379   2.407       .  S
Zr373       O399   2.437       .  S
Zr373       O400   2.438       .  S
Zr373       O375   2.441       .  S
Zr373       O376   2.387       .  S
Zr373       O377   2.383       .  S
O374        H411   0.990       .  S
O375        H406   0.990       .  S
O375        H420   0.990       .  S
O377        H403   0.964       .  S
O378       Zr388   2.379       .  S
O379       Zr388   2.375       .  S
O379        H404   0.965       .  S
C380       C3120   1.481       .  S
C381       C2688   1.471       .  S
C382       C3283   1.477       .  S
O383        H419   0.990       .  S
O384        C386   1.278       .  A
O385        C386   1.292       .  A
C386       C2448   1.468       .  S
O387       Zr388   2.434       .  S
O387        H416   0.990       .  S
Zr388       O391   2.436       .  S
Zr388       O392   2.442       .  S
Zr388       O393   2.395       .  S
O389        C394   1.290       .  A
O390        H407   0.990       .  S
O390        H422   0.990       .  S
O391        H408   0.990       .  S
O392        H412   0.990       .  S
O392        H421   0.989       .  S
O393        C394   1.276       .  A
C394       C2931   1.472       .  S
O395        H414   0.990       .  S
O395        H418   0.990       .  S
O396        H410   0.990       .  S
O396        H417   0.990       .  S
O397        C401   1.288       .  A
O398        C401   1.268       .  A
O399        H409   0.990       .  S
O400        H413   0.990       .  S
C401       C2464   1.478       .  S
Zr424       O425   2.439       .  S
Zr424       O426   2.479   1_455  S
Zr424       O427   2.469       .  S
Zr424       O430   2.490   1_455  S
Zr424       O432   2.399       .  S
Zr424       O433   2.401   1_455  S
Zr424       O434   2.445       .  S
Zr424       O435   2.402   1_455  S
O425        H481   0.990       .  S
O425        H489   0.990       .  S
O426        C446   1.290       .  A
O427        C448   1.284       .  A
O428       Zr438   2.412       .  S
O428        C447   1.280       .  A
O429       Zr437   2.403       .  S
O429        C448   1.268       .  A
O430        C447   1.294       .  A
O431       Zr439   2.374       .  S
O431        C446   1.273       .  A
O432       Zr437   2.400       .  S
O432       Zr439   2.378   1_455  S
O433       Zr438   2.393       .  S
O433       Zr439   2.389       .  S
O433        H468   0.964       .  S
O434       Zr437   2.398       .  S
O434       Zr454   2.382       .  S
O434        H471   0.965       .  S
O435       Zr438   2.377       .  S
O435       Zr454   2.374   1_655  S
Zr436       O461   2.439       .  S
Zr436       O455   2.478       .  S
Zr436       O463   2.491       .  S
Zr436       O451   2.510       .  S
Zr436       O442   2.418       .  S
Zr436       O443   2.420       .  S
Zr436       O444   2.394   1_655  S
Zr436       O445   2.416       .  S
Zr437       O456   2.436       .  S
Zr437       O449   2.435       .  S
Zr437       O450   2.395       .  S
Zr437       O443   2.400   1_455  S
Zr437       O444   2.382       .  S
Zr438       O440   2.440       .  S
Zr438       O462   2.439       .  S
Zr438       O464   2.408       .  S
Zr438       O442   2.391       .  S
Zr438       O445   2.410       .  S
Zr439       O465   2.438       .  S
Zr439       O466   2.435       .  S
Zr439       O441   2.437       .  S
Zr439       O442   2.370       .  S
Zr439       O443   2.377       .  S
O440        H477   0.990       .  S
O441        H472   0.990       .  S
O441        H486   0.990       .  S
O443        H469   0.963       .  S
O444       Zr454   2.386       .  S
O445       Zr454   2.373   1_655  S
O445        H470   0.967       .  S
C446       C2915   1.473       .  S
C447       C2416   1.475       .  S
C448       C2435   1.476       .  S
O449        H485   0.991       .  S
O450        C452   1.277       .  A
O451        C452   1.298   1_655  A
C452       C2755   1.480       .  S
O453       Zr454   2.440       .  S
O453        H482   0.990       .  S
Zr454       O457   2.438       .  S
Zr454       O458   2.441   1_455  S
Zr454       O459   2.384       .  S
O455        C460   1.291       .  A
O456        H473   0.990       .  S
O456        H488   0.988       .  S
O457        H474   0.990       .  S
O458        H478   0.990       .  S
O458        H487   0.990       .  S
O459        C460   1.275   1_455  A
C460       C3347   1.471   1_655  S
O461        H480   0.990       .  S
O461        H484   0.991       .  S
O462        H476   0.989       .  S
O462        H483   0.990       .  S
O463        C467   1.288       .  A
O464        C467   1.268       .  A
O465        H475   0.990       .  S
O466        H479   0.990       .  S
C467       C3395   1.481       .  S
C490        C491   1.555       .  S
C490        C496   1.550       .  S
C490        C494   1.559       .  S
C490       C2400   1.536       .  S
C491        H498   1.086       .  S
C491        C492   1.369       .  D
C492        C493   1.517       .  S
C492       C2499   1.476       .  S
C493        C497   1.523       .  S
C493        C495   1.521       .  S
C493        H499   1.112       .  S
C494        H500   1.083       .  S
C494        C495   1.370       .  D
C495       C2432   1.479       .  S
C496        H501   1.086       .  S
C496        C497   1.371       .  D
C497       C2467   1.473       .  S
Zr502       O503   2.440       .  S
Zr502       O504   2.477       .  S
Zr502       O505   2.475       .  S
Zr502       O508   2.481       .  S
Zr502       O510   2.390       .  S
Zr502       O511   2.396       .  S
Zr502       O512   2.431       .  S
Zr502       O513   2.415       .  S
O503        H559   0.990       .  S
O503        H567   0.991       .  S
O504        C524   1.291       .  A
O505        C526   1.289       .  A
O506       Zr516   2.389       .  S
O506        C525   1.276       .  A
O507       Zr515   2.418       .  S
O507        C526   1.275       .  A
O508        C525   1.293       .  A
O509       Zr517   2.371       .  S
O509        C524   1.271       .  A
O510       Zr515   2.390       .  S
O510       Zr517   2.380       .  S
O511       Zr516   2.387       .  S
O511       Zr517   2.383       .  S
O511        H546   0.969       .  S
O512       Zr515   2.402       .  S
O512       Zr532   2.366       .  S
O512        H549   0.964       .  S
O513       Zr516   2.395       .  S
O513       Zr532   2.395       .  S
Zr514       O539   2.438       .  S
Zr514       O533   2.453       .  S
Zr514       O541   2.479       .  S
Zr514       O529   2.488       .  S
Zr514       O520   2.407       .  S
Zr514       O521   2.417       .  S
Zr514       O522   2.395       .  S
Zr514       O523   2.417       .  S
Zr515       O534   2.437       .  S
Zr515       O527   2.434       .  S
Zr515       O528   2.409       .  S
Zr515       O521   2.392       .  S
Zr515       O522   2.389       .  S
Zr516       O518   2.436       .  S
Zr516       O540   2.437       .  S
Zr516       O542   2.416       .  S
Zr516       O520   2.385       .  S
Zr516       O523   2.398       .  S
Zr517       O543   2.438       .  S
Zr517       O544   2.434       .  S
Zr517       O519   2.437       .  S
Zr517       O520   2.365       .  S
Zr517       O521   2.381       .  S
O518        H555   0.991       .  S
O519        H550   0.990       .  S
O519        H564   0.990       .  S
O521        H547   0.965       .  S
O522       Zr532   2.381       .  S
O523       Zr532   2.376       .  S
O523        H548   0.967       .  S
C524       C2563   1.467       .  S
C525       C2387   1.471       .  S
C526       C2608   1.475       .  S
O527        H563   0.990       .  S
O528        C530   1.281       .  A
O529        C530   1.295       .  A
C530       C2355   1.481       .  S
O531       Zr532   2.435       .  S
O531        H560   0.990       .  S
Zr532       O535   2.437       .  S
Zr532       O536   2.441       .  S
Zr532       O537   2.401       .  S
O533        C538   1.282       .  A
O534        H551   0.990       .  S
O534        H566   0.989       .  S
O535        H552   0.990       .  S
O536        H556   0.989       .  S
O536        H565   0.990       .  S
O537        C538   1.270       .  A
C538       C2368   1.462       .  S
O539        H558   0.990       .  S
O539        H562   0.990       .  S
O540        H554   0.988       .  S
O540        H561   0.990       .  S
O541        C545   1.288       .  A
O542        C545   1.271       .  A
O543        H553   0.990       .  S
O544        H557   0.990       .  S
C545       C2336   1.475       .  S
C568       C2288   1.547       .  S
C568       C2304   1.547       .  S
C568       C2320   1.554       .  S
C568       C2403   1.545       .  S
C569        C570   1.559       .  S
C569        C575   1.556       .  S
C569        C573   1.559       .  S
C569       C2323   1.542       .  S
C570        H577   1.083   1_565  S
C570        C571   1.366   1_565  D
C571        C572   1.518   1_545  S
C571       C3232   1.477       .  S
C572        C576   1.519       .  S
C572        C574   1.520       .  S
C572        H578   1.110   1_565  S
C573        H579   1.085       .  S
C573        C574   1.375       .  D
C574       C2259   1.484       .  S
C575        H580   1.085       .  S
C575        C576   1.371       .  D
C576       C2272   1.482       .  S
C581        C582   1.560       .  S
C581        C587   1.544       .  S
C581        C585   1.556       .  S
C581       C2307   1.528       .  S
C582        H589   1.085       .  S
C582        C583   1.374       .  D
C583        C584   1.521       .  S
C583       C3027   1.489       .  S
C584        C588   1.522   1_556  S
C584        C586   1.524       .  S
C584        H590   1.110   1_556  S
C585        H591   1.085       .  S
C585        C586   1.374       .  D
C586       C2243   1.486       .  S
C587        H592   1.086       .  S
C587        C588   1.361   1_556  D
C588       C2371   1.464       .  S
C593        C594   1.555       .  S
C593        C599   1.559       .  S
C593        C597   1.552       .  S
C593       C2211   1.540       .  S
C594        H601   1.086       .  S
C594        C595   1.371       .  D
C595        C596   1.522       .  S
C595       C2224   1.480       .  S
C596        C600   1.524       .  S
C596        C598   1.520       .  S
C596        H602   1.112       .  S
C597        H603   1.086       .  S
C597        C598   1.367       .  D
C598       C2176   1.472       .  S
C599        H604   1.085       .  S
C599        C600   1.376       .  D
C600       C2192   1.485       .  S
Zr605       O606   2.438       .  S
Zr605       O607   2.486       .  S
Zr605       O608   2.489       .  S
Zr605       O611   2.490       .  S
Zr605       O613   2.391       .  S
Zr605       O614   2.400       .  S
Zr605       O615   2.440       .  S
Zr605       O616   2.408       .  S
O606        H662   0.990       .  S
O606        H670   0.990       .  S
O607        C627   1.293       .  A
O608        C629   1.289       .  A
O609       Zr619   2.402       .  S
O609        C628   1.279       .  A
O610       Zr618   2.408       .  S
O610        C629   1.271       .  A
O611        C628   1.295       .  A
O612       Zr620   2.383       .  S
O612        C627   1.273       .  A
O613       Zr618   2.399       .  S
O613       Zr620   2.378       .  S
O614       Zr619   2.392       .  S
O614       Zr620   2.383       .  S
O614        H649   0.966       .  S
O615       Zr618   2.391       .  S
O615       Zr635   2.384       .  S
O615        H652   0.965       .  S
O616       Zr619   2.378       .  S
O616       Zr635   2.380       .  S
Zr617       O642   2.439       .  S
Zr617       O636   2.488       .  S
Zr617       O644   2.496       .  S
Zr617       O632   2.484       .  S
Zr617       O623   2.409       .  S
Zr617       O624   2.425       .  S
Zr617       O625   2.396       .  S
Zr617       O626   2.396       .  S
Zr618       O637   2.439       .  S
Zr618       O630   2.437       .  S
Zr618       O631   2.393       .  S
Zr618       O624   2.401       .  S
Zr618       O625   2.386       .  S
Zr619       O621   2.436       .  S
Zr619       O643   2.436       .  S
Zr619       O645   2.407       .  S
Zr619       O623   2.387       .  S
Zr619       O626   2.386       .  S
Zr620       O646   2.436       .  S
Zr620       O647   2.438       .  S
Zr620       O622   2.439       .  S
Zr620       O623   2.378       .  S
Zr620       O624   2.384       .  S
O621        H658   0.990       .  S
O622        H653   0.990       .  S
O622        H667   0.990       .  S
O624        H650   0.964       .  S
O625       Zr635   2.384       .  S
O626       Zr635   2.375       .  S
O626        H651   0.966       .  S
C627       C2128   1.474       .  S
C628       C2112   1.477       .  S
C629       C2883   1.485       .  S
O630        H666   0.990       .  S
O631        C633   1.277       .  A
O632        C633   1.293       .  A
C633       C2144   1.468       .  S
O634       Zr635   2.436       .  S
O634        H663   0.990       .  S
Zr635       O638   2.436       .  S
Zr635       O639   2.438       .  S
Zr635       O640   2.395       .  S
O636        C641   1.293       .  A
O637        H654   0.989       .  S
O637        H669   0.989       .  S
O638        H655   0.990       .  S
O639        H659   0.990       .  S
O639        H668   0.990       .  S
O640        C641   1.278       .  A
C641       C2160   1.480       .  S
O642        H661   0.991       .  S
O642        H665   0.990       .  S
O643        H657   0.989       .  S
O643        H664   0.990       .  S
O644        C648   1.292       .  A
O645        C648   1.273       .  A
O646        H656   0.990       .  S
O647        H660   0.990       .  S
C648       C2195   1.484       .  S
C671        C672   1.559       .  S
C671        C677   1.551       .  S
C671        C675   1.552       .  S
C671       C2080   1.543       .  S
C672        H679   1.081       .  S
C672        C673   1.367       .  D
C673        C674   1.514       .  S
C673       C2096   1.480       .  S
C674        C678   1.521       .  S
C674        C676   1.523       .  S
C674        H680   1.112       .  S
C675        H681   1.085       .  S
C675        C676   1.374       .  D
C676       C2147   1.477       .  S
C677        H682   1.086       .  S
C677        C678   1.371       .  D
C678       C2064   1.471       .  S
Zr683       O684   2.439       .  S
Zr683       O685   2.481       .  S
Zr683       O686   2.474       .  S
Zr683       O689   2.481       .  S
Zr683       O691   2.396   1_545  S
Zr683       O692   2.399       .  S
Zr683       O693   2.441       .  S
Zr683       O694   2.403       .  S
O684        H740   0.990       .  S
O684        H748   0.990       .  S
O685        C705   1.292   1_545  A
O686        C707   1.286   1_545  A
O687       Zr697   2.398       .  S
O687        C706   1.277       .  A
O688       Zr696   2.413       .  S
O688        C707   1.273       .  A
O689        C706   1.293       .  A
O690       Zr698   2.394       .  S
O690        C705   1.275       .  A
O691       Zr696   2.403       .  S
O691       Zr698   2.382       .  S
O692       Zr697   2.388       .  S
O692       Zr698   2.381   1_545  S
O692        H727   0.967       .  S
O693       Zr696   2.391   1_545  S
O693       Zr713   2.386       .  S
O693        H730   0.966       .  S
O694       Zr697   2.380       .  S
O694       Zr713   2.379       .  S
Zr695       O720   2.439       .  S
Zr695       O714   2.491       .  S
Zr695       O722   2.480       .  S
Zr695       O710   2.475       .  S
Zr695       O701   2.416       .  S
Zr695       O702   2.432       .  S
Zr695       O703   2.394       .  S
Zr695       O704   2.396   1_565  S
Zr696       O715   2.435       .  S
Zr696       O708   2.437       .  S
Zr696       O709   2.407       .  S
Zr696       O702   2.402       .  S
Zr696       O703   2.388       .  S
Zr697       O699   2.434       .  S
Zr697       O721   2.436       .  S
Zr697       O723   2.404       .  S
Zr697       O701   2.382   1_545  S
Zr697       O704   2.402       .  S
Zr698       O724   2.436       .  S
Zr698       O725   2.436       .  S
Zr698       O700   2.438       .  S
Zr698       O701   2.389       .  S
Zr698       O702   2.376       .  S
O699        H736   0.990       .  S
O700        H731   0.991       .  S
O700        H745   0.990       .  S
O702        H728   0.963       .  S
O703       Zr713   2.382   1_565  S
O704       Zr713   2.376       .  S
O704        H729   0.967       .  S
C705       C2275   1.476       .  S
C706       C2048   1.466       .  S
C707       C2032   1.481       .  S
O708        H744   0.990       .  S
O709        C711   1.279       .  A
O710        C711   1.293       .  A
C711       C3379   1.467       .  S
O712       Zr713   2.434       .  S
O712        H741   0.990       .  S
Zr713       O716   2.437       .  S
Zr713       O717   2.438       .  S
Zr713       O718   2.396       .  S
O714        C719   1.294   1_565  A
O715        H732   0.990       .  S
O715        H747   0.989       .  S
O716        H733   0.990       .  S
O717        H737   0.990       .  S
O717        H746   0.990       .  S
O718        C719   1.276       .  A
C719       C3328   1.482       .  S
O720        H739   0.991       .  S
O720        H743   0.990       .  S
O721        H735   0.990       .  S
O721        H742   0.990       .  S
O722        C726   1.288       .  A
O723        C726   1.269   1_545  A
O724        H734   0.990       .  S
O725        H738   0.990       .  S
C726       C3456   1.475       .  S
C749        C750   1.553       .  S
C749        C755   1.558       .  S
C749        C753   1.558       .  S
C749       C2992   1.537       .  S
C750        H757   1.085       .  S
C750        C751   1.371       .  D
C751        C752   1.517       .  S
C751       C2051   1.472       .  S
C752        C756   1.520       .  S
C752        C754   1.516       .  S
C752        H758   1.111       .  S
C753        H759   1.085       .  S
C753        C754   1.365       .  D
C754       C2016   1.478       .  S
C755        H760   1.085       .  S
C755        C756   1.376       .  D
C756       C3184   1.480       .  S
Zr761       O762   2.439       .  S
Zr761       O763   2.468       .  S
Zr761       O764   2.485       .  S
Zr761       O767   2.500       .  S
Zr761       O769   2.396       .  S
Zr761       O770   2.397       .  S
Zr761       O771   2.430       .  S
Zr761       O772   2.405       .  S
O762        H818   0.990       .  S
O762        H826   0.991       .  S
O763        C783   1.288       .  A
O764        C785   1.291       .  A
O765       Zr775   2.391       .  S
O765        C784   1.278       .  A
O766       Zr774   2.410       .  S
O766        C785   1.277       .  A
O767        C784   1.296       .  A
O768       Zr776   2.388       .  S
O768        C783   1.275       .  A
O769       Zr774   2.397       .  S
O769       Zr776   2.381       .  S
O770       Zr775   2.388       .  S
O770       Zr776   2.379       .  S
O770        H805   0.969       .  S
O771       Zr774   2.395       .  S
O771       Zr791   2.372       .  S
O771        H808   0.965       .  S
O772       Zr775   2.385       .  S
O772       Zr791   2.380       .  S
Zr773       O798   2.440       .  S
Zr773       O792   2.487       .  S
Zr773       O800   2.497       .  S
Zr773       O788   2.490       .  S
Zr773       O779   2.409       .  S
Zr773       O780   2.424       .  S
Zr773       O781   2.395       .  S
Zr773       O782   2.394       .  S
Zr774       O793   2.436       .  S
Zr774       O786   2.434       .  S
Zr774       O787   2.417       .  S
Zr774       O780   2.391       .  S
Zr774       O781   2.389       .  S
Zr775       O777   2.435       .  S
Zr775       O799   2.436       .  S
Zr775       O801   2.399       .  S
Zr775       O779   2.386       .  S
Zr775       O782   2.385       .  S
Zr776       O802   2.437       .  S
Zr776       O803   2.439       .  S
Zr776       O778   2.439       .  S
Zr776       O779   2.381       .  S
Zr776       O780   2.382       .  S
O777        H814   0.990       .  S
O778        H809   0.990       .  S
O778        H823   0.990       .  S
O780        H806   0.964       .  S
O781       Zr791   2.388       .  S
O782       Zr791   2.372       .  S
O782        H807   0.966       .  S
C783       C2019   1.467       .  S
C784       C1968   1.486       .  S
C785       C1984   1.479       .  S
O786        H822   0.990       .  S
O787        C789   1.280       .  A
O788        C789   1.294       .  A
C789       C2003   1.481       .  S
O790       Zr791   2.434       .  S
O790        H819   0.990       .  S
Zr791       O794   2.435       .  S
Zr791       O795   2.439       .  S
Zr791       O796   2.373       .  S
O792        C797   1.293       .  A
O793        H810   0.990       .  S
O793        H825   0.990       .  S
O794        H811   0.990       .  S
O795        H815   0.990       .  S
O795        H824   0.990       .  S
O796        C797   1.273       .  A
C797       C2099   1.472       .  S
O798        H817   0.991       .  S
O798        H821   0.990       .  S
O799        H813   0.990       .  S
O799        H820   0.990       .  S
O800        C804   1.294       .  A
O801        C804   1.273       .  A
O802        H812   0.990       .  S
O803        H816   0.990       .  S
C804       C2227   1.482       .  S
C827       C1907   1.544       .  S
C827       C1923   1.547       .  S
C827       C1939   1.553       .  S
C827       C1955   1.559       .  S
C828        C829   1.556       .  S
C828        C834   1.558   1_565  S
C828        C832   1.549       .  S
C828       C1936   1.536       .  S
C829        H836   1.086       .  S
C829        C830   1.371       .  D
C830        C831   1.523   1_565  S
C830       C2035   1.481       .  S
C831        C835   1.521       .  S
C831        C833   1.519   1_545  S
C831        H837   1.112       .  S
C832        H838   1.086       .  S
C832        C833   1.366       .  D
C833       C1891   1.470       .  S
C834        H839   1.085       .  S
C834        C835   1.375       .  D
C835       C1987   1.481       .  S
C840        C841   1.551       .  S
C840        C846   1.563       .  S
C840        C844   1.560       .  S
C840       C1920   1.543       .  S
C841        H848   1.086       .  S
C841        C842   1.370       .  D
C842        C843   1.520       .  S
C842       C1872   1.472       .  S
C843        C847   1.519       .  S
C843        C845   1.518       .  S
C843        H849   1.110       .  S
C844        H850   1.083       .  S
C844        C845   1.367       .  D
C845       C2419   1.480       .  S
C846        H851   1.085       .  S
C846        C847   1.376       .  D
C847       C2512   1.489   1_655  S
C852        C853   1.552       .  S
C852        C858   1.559       .  S
C852        C856   1.556       .  S
C852       C1952   1.546       .  S
C853        H860   1.085       .  S
C853        C854   1.368       .  D
C854        C855   1.520       .  S
C854       C2339   1.468       .  S
C855        C859   1.521       .  S
C855        C857   1.520       .  S
C855        H861   1.112       .  S
C856        H862   1.085       .  S
C856        C857   1.375       .  D
C857       C2115   1.485       .  S
C858        H863   1.085       .  S
C858        C859   1.375       .  D
C859       C3056   1.486       .  S
C864        C865   1.553       .  S
C864        C870   1.554       .  S
C864        C868   1.554       .  S
C864       C1859   1.529       .  S
C865        H872   1.085       .  S
C865        C866   1.371       .  D
C866        C867   1.520       .  S
C866       C2483   1.481       .  S
C867        C871   1.518       .  S
C867        C869   1.523       .  S
C867        H873   1.110       .  S
C868        H874   1.086       .  S
C868        C869   1.368       .  D
C869       C2451   1.479       .  S
C870        H875   1.085       .  S
C870        C871   1.370       .  D
C871       C1840   1.473       .  S
Zr876       O877   2.438       .  S
Zr876       O878   2.468       .  S
Zr876       O879   2.467       .  S
Zr876       O882   2.471       .  S
Zr876       O884   2.398       .  S
Zr876       O885   2.398       .  S
Zr876       O886   2.443       .  S
Zr876       O887   2.401       .  S
O877        H933   0.990       .  S
O877        H941   0.991       .  S
O878        C898   1.290       .  A
O879        C900   1.283       .  A
O880       Zr890   2.413       .  S
O880        C899   1.277       .  A
O881       Zr889   2.400       .  S
O881        C900   1.266       .  A
O882        C899   1.290       .  A
O883       Zr891   2.385       .  S
O883        C898   1.274       .  A
O884       Zr889   2.396       .  S
O884       Zr891   2.375       .  S
O885       Zr890   2.386       .  S
O885       Zr891   2.384       .  S
O885        H920   0.962       .  S
O886       Zr889   2.398       .  S
O886       Zr906   2.383   1_556  S
O886        H923   0.965       .  S
O887       Zr890   2.378       .  S
O887       Zr906   2.376   1_556  S
Zr888       O913   2.439       .  S
Zr888       O907   2.461       .  S
Zr888       O915   2.483       .  S
Zr888       O903   2.505       .  S
Zr888       O894   2.416   1_554  S
Zr888       O895   2.413   1_554  S
Zr888       O896   2.390       .  S
Zr888       O897   2.406       .  S
Zr889       O908   2.439   1_556  S
Zr889       O901   2.440       .  S
Zr889       O902   2.382   1_556  S
Zr889       O895   2.400       .  S
Zr889       O896   2.388   1_556  S
Zr890       O892   2.436   1_556  S
Zr890       O914   2.438       .  S
Zr890       O916   2.408   1_556  S
Zr890       O894   2.394       .  S
Zr890       O897   2.400   1_556  S
Zr891       O917   2.437       .  S
Zr891       O918   2.434       .  S
Zr891       O893   2.439       .  S
Zr891       O894   2.378       .  S
Zr891       O895   2.382       .  S
O892        H929   0.990       .  S
O893        H924   0.990       .  S
O893        H938   0.990       .  S
O895        H921   0.964       .  S
O896       Zr906   2.384       .  S
O897       Zr906   2.374       .  S
O897        H922   0.965       .  S
C898       C3136   1.466       .  S
C899       C3075   1.468       .  S
C900       C2672   1.475       .  S
O901        H937   0.989       .  S
O902        C904   1.274       .  A
O903        C904   1.297       .  A
C904       C2240   1.475       .  S
O905       Zr906   2.437       .  S
O905        H934   0.991   1_554  S
Zr906       O909   2.435       .  S
Zr906       O910   2.441       .  S
Zr906       O911   2.392       .  S
O907        C912   1.288       .  A
O908        H925   0.990       .  S
O908        H940   0.988   1_554  S
O909        H926   0.990       .  S
O910        H930   0.990       .  S
O910        H939   0.990       .  S
O911        C912   1.275       .  A
C912       C1827   1.466       .  S
O913        H932   0.990       .  S
O913        H936   0.990       .  S
O914        H928   0.988       .  S
O914        H935   0.990       .  S
O915        C919   1.290       .  A
O916        C919   1.270       .  A
O917        H927   0.990       .  S
O918        H931   0.990       .  S
C919       C2867   1.474       .  S
C942        C943   1.553       .  S
C942        C948   1.568       .  S
C942        C946   1.563       .  S
C942       C1811   1.547       .  S
C943        H950   1.085       .  S
C943        C944   1.368       .  D
C944        C945   1.517       .  S
C944       C1824   1.479       .  S
C945        C949   1.517       .  S
C945        C947   1.517       .  S
C945        H951   1.106       .  S
C946        H952   1.085       .  S
C946        C947   1.375       .  D
C947       C2131   1.486       .  S
C948        H953   1.083       .  S
C948        C949   1.375       .  D
C949       C2352   1.492       .  S
C954       C1779   1.550       .  S
C954       C1792   1.558       .  S
C954       C1808   1.553       .  S
C954       C1856   1.550       .  S
C955        C956   1.566       .  S
C955        C961   1.549       .  S
C955        C959   1.547       .  S
C955       C1776   1.534       .  S
C956        H963   1.084       .  S
C956        C957   1.379       .  D
C957        C958   1.525       .  S
C957       C1971   1.492       .  S
C958        C962   1.521       .  S
C958        C960   1.517       .  S
C958        H964   1.111       .  S
C959        H965   1.086       .  S
C959        C960   1.364       .  D
C960       C1760   1.467       .  S
C961        H966   1.086       .  S
C961        C962   1.365       .  D
C962       C3168   1.471       .  S
Zr967       O968   2.438       .  S
Zr967       O969   2.470       .  S
Zr967       O970   2.452       .  S
Zr967       O973   2.478       .  S
Zr967       O975   2.398       .  S
Zr967       O976   2.400       .  S
Zr967       O977   2.443       .  S
Zr967       O978   2.403       .  S
O968       H1024   0.990       .  S
O968       H1032   0.991       .  S
O969        C989   1.284       .  A
O970        C991   1.283       .  A
O971       Zr981   2.403       .  S
O971        C990   1.278       .  A
O972       Zr980   2.416       .  S
O972        C991   1.273       .  A
O973        C990   1.293       .  A
O974       Zr982   2.395       .  S
O974        C989   1.270       .  A
O975       Zr980   2.388       .  S
O975       Zr982   2.368       .  S
O976       Zr981   2.389       .  S
O976       Zr982   2.387       .  S
O976       H1011   0.966       .  S
O977       Zr980   2.404       .  S
O977       Zr997   2.377   1_545  S
O977       H1014   0.965       .  S
O978       Zr981   2.383       .  S
O978       Zr997   2.386   1_545  S
Zr979      O1004   2.441       .  S
Zr979       O998   2.459       .  S
Zr979      O1006   2.473       .  S
Zr979       O994   2.479       .  S
Zr979       O985   2.415   1_565  S
Zr979       O986   2.421   1_565  S
Zr979       O987   2.396       .  S
Zr979       O988   2.413       .  S
Zr980       O999   2.436   1_545  S
Zr980       O992   2.436       .  S
Zr980       O993   2.418       .  S
Zr980       O986   2.414       .  S
Zr980       O987   2.375   1_545  S
Zr981       O983   2.439   1_545  S
Zr981      O1005   2.441       .  S
Zr981      O1007   2.405   1_545  S
Zr981       O985   2.390       .  S
Zr981       O988   2.400   1_545  S
Zr982      O1008   2.438       .  S
Zr982      O1009   2.437       .  S
Zr982       O984   2.437       .  S
Zr982       O985   2.390       .  S
Zr982       O986   2.381       .  S
O983       H1020   0.990       .  S
O984       H1015   0.990       .  S
O984       H1029   0.991       .  S
O986       H1012   0.963       .  S
O987       Zr997   2.383       .  S
O988       Zr997   2.374       .  S
O988       H1013   0.965       .  S
C989       C1763   1.469       .  S
C990       C2256   1.473       .  S
C991       C1888   1.472       .  S
O992       H1028   0.990       .  S
O993        C995   1.281   1_545  A
O994        C995   1.293       .  A
C995       C1744   1.474       .  S
O996       Zr997   2.436       .  S
O996       H1025   0.990       .  S
Zr997      O1000   2.436       .  S
Zr997      O1001   2.440       .  S
Zr997      O1002   2.396       .  S
O998       C1003   1.283       .  A
O999       H1016   0.990       .  S
O999       H1031   0.990       .  S
O1000      H1017   0.990       .  S
O1001      H1021   0.990       .  S
O1001      H1030   0.990       .  S
O1002      C1003   1.269       .  A
C1003      C2531   1.462       .  S
O1004      H1023   0.990       .  S
O1004      H1027   0.990       .  S
O1005      H1019   0.990       .  S
O1005      H1026   0.989       .  S
O1006      C1010   1.286       .  A
O1007      C1010   1.268       .  A
O1008      H1018   0.990       .  S
O1009      H1022   0.990       .  S
C1010      C2800   1.472       .  S
C1033      C1034   1.558       .  S
C1033      C1039   1.559       .  S
C1033      C1037   1.568       .  S
C1033      C1712   1.551       .  S
C1034      H1041   1.085       .  S
C1034      C1035   1.374   1_545  D
C1035      C1036   1.516   1_565  S
C1035      C2384   1.481       .  S
C1036      C1040   1.521       .  S
C1036      C1038   1.513       .  S
C1036      H1042   1.108   1_545  S
C1037      H1043   1.082       .  S
C1037      C1038   1.370       .  D
C1038      C1731   1.488       .  S
C1039      H1044   1.085       .  S
C1039      C1040   1.374       .  D
C1040      C1747   1.485       .  S
C1045      C1046   1.560       .  S
C1045      C1051   1.558       .  S
C1045      C1049   1.551       .  S
C1045      C2595   1.541       .  S
C1046      H1053   1.085   1_455  S
C1046      C1047   1.374   1_455  D
C1047      C1048   1.520       .  S
C1047      C2163   1.487       .  S
C1048      C1052   1.521   1_655  S
C1048      C1050   1.521   1_655  S
C1048      H1054   1.110       .  S
C1049      H1055   1.086       .  S
C1049      C1050   1.370       .  D
C1050      C1680   1.477       .  S
C1051      H1056   1.082       .  S
C1051      C1052   1.368       .  D
C1052      C1696   1.477       .  S
Zr1057     O1058   2.441   1_655  S
Zr1057     O1059   2.472       .  S
Zr1057     O1060   2.461   1_655  S
Zr1057     O1063   2.475       .  S
Zr1057     O1065   2.394       .  S
Zr1057     O1066   2.398       .  S
Zr1057     O1067   2.443   1_655  S
Zr1057     O1068   2.410       .  S
O1058      H1114   0.990       .  S
O1058      H1122   0.990       .  S
O1059      C1079   1.289       .  A
O1060      C1081   1.284       .  A
O1061     Zr1071   2.400       .  S
O1061      C1080   1.278       .  A
O1062     Zr1070   2.418       .  S
O1062      C1081   1.272       .  A
O1063      C1080   1.291       .  A
O1064     Zr1072   2.382       .  S
O1064      C1079   1.273       .  A
O1065     Zr1070   2.399   1_655  S
O1065     Zr1072   2.379       .  S
O1066     Zr1071   2.391       .  S
O1066     Zr1072   2.384       .  S
O1066      H1101   0.968       .  S
O1067     Zr1070   2.393       .  S
O1067     Zr1087   2.368       .  S
O1067      H1104   0.963       .  S
O1068     Zr1071   2.382       .  S
O1068     Zr1087   2.386   1_655  S
Zr1069     O1094   2.440       .  S
Zr1069     O1088   2.463       .  S
Zr1069     O1096   2.481       .  S
Zr1069     O1084   2.484       .  S
Zr1069     O1075   2.407       .  S
Zr1069     O1076   2.421       .  S
Zr1069     O1077   2.395   1_655  S
Zr1069     O1078   2.405       .  S
Zr1070     O1089   2.437       .  S
Zr1070     O1082   2.437       .  S
Zr1070     O1083   2.405       .  S
Zr1070     O1076   2.402   1_455  S
Zr1070     O1077   2.388       .  S
Zr1071     O1073   2.436       .  S
Zr1071     O1095   2.437       .  S
Zr1071     O1097   2.412       .  S
Zr1071     O1075   2.387       .  S
Zr1071     O1078   2.389       .  S
Zr1072     O1098   2.437       .  S
Zr1072     O1099   2.436       .  S
Zr1072     O1074   2.438       .  S
Zr1072     O1075   2.369       .  S
Zr1072     O1076   2.385       .  S
O1073      H1110   0.990       .  S
O1074      H1105   0.990       .  S
O1074      H1119   0.990       .  S
O1076      H1102   0.965       .  S
O1077     Zr1087   2.383       .  S
O1078     Zr1087   2.371   1_655  S
O1078      H1103   0.963       .  S
C1079      C1875   1.465       .  S
C1080      C2899   1.468       .  S
C1081      C1843   1.476       .  S
O1082      H1118   0.990       .  S
O1083      C1085   1.279   1_455  A
O1084      C1085   1.293       .  A
C1085      C1683   1.473   1_655  S
O1086     Zr1087   2.436       .  S
O1086      H1115   0.990       .  S
Zr1087     O1090   2.440       .  S
Zr1087     O1091   2.437   1_455  S
Zr1087     O1092   2.395       .  S
O1088      C1093   1.287       .  A
O1089      H1106   0.989       .  S
O1089      H1121   0.990       .  S
O1090      H1107   0.990       .  S
O1091      H1111   0.990       .  S
O1091      H1120   0.990       .  S
O1092      C1093   1.274   1_455  A
C1093      C1664   1.464       .  S
O1094      H1113   0.990       .  S
O1094      H1117   0.990       .  S
O1095      H1109   0.990       .  S
O1095      H1116   0.990       .  S
O1096      C1100   1.289       .  A
O1097      C1100   1.272       .  A
O1098      H1108   0.990       .  S
O1099      H1112   0.990       .  S
C1100      C2179   1.476       .  S
C1123      C1124   1.557       .  S
C1123      C1129   1.561   1_455  S
C1123      C1127   1.547       .  S
C1123      C2784   1.536       .  S
C1124      H1131   1.084       .  S
C1124      C1125   1.372       .  D
C1125      C1126   1.523   1_455  S
C1125      C1648   1.479       .  S
C1126      C1130   1.518       .  S
C1126      C1128   1.517   1_655  S
C1126      H1132   1.111       .  S
C1127      H1133   1.086       .  S
C1127      C1128   1.363       .  D
C1128      C1667   1.464       .  S
C1129      H1134   1.085       .  S
C1129      C1130   1.376       .  D
C1130      C2000   1.487       .  S
C1135      C1136   1.554       .  S
C1135      C1141   1.561       .  S
C1135      C1139   1.549       .  S
C1135      C2291   1.537       .  S
C1136      H1143   1.085       .  S
C1136      C1137   1.371       .  D
C1137      C1138   1.521       .  S
C1137      C1616   1.475       .  S
C1138      C1142   1.519       .  S
C1138      C1140   1.521   1_565  S
C1138      H1144   1.111   1_565  S
C1139      H1145   1.085       .  S
C1139      C1140   1.371   1_565  D
C1140      C1600   1.480       .  S
C1141      H1146   1.083       .  S
C1141      C1142   1.369       .  D
C1142      C1635   1.481   1_556  S
Zr1147     O1148   2.439   1_655  S
Zr1147     O1149   2.474       .  S
Zr1147     O1150   2.457   1_655  S
Zr1147     O1153   2.484       .  S
Zr1147     O1155   2.398   1_554  S
Zr1147     O1156   2.397       .  S
Zr1147     O1157   2.447   1_644  S
Zr1147     O1158   2.406   1_545  S
O1148      H1204   0.990       .  S
O1148      H1212   0.990       .  S
O1149      C1169   1.290   1_554  A
O1150      C1171   1.284   1_554  A
O1151     Zr1161   2.397       .  S
O1151      C1170   1.276   1_565  A
O1152     Zr1160   2.409       .  S
O1152      C1171   1.270       .  A
O1153      C1170   1.294       .  A
O1154     Zr1162   2.392       .  S
O1154      C1169   1.275       .  A
O1155     Zr1160   2.397   1_655  S
O1155     Zr1162   2.374       .  S
O1156     Zr1161   2.389   1_545  S
O1156     Zr1162   2.386   1_554  S
O1156      H1191   0.967       .  S
O1157     Zr1160   2.401   1_565  S
O1157     Zr1177   2.370   1_556  S
O1157      H1194   0.964       .  S
O1158     Zr1161   2.382       .  S
O1158     Zr1177   2.384   1_655  S
Zr1159     O1184   2.440       .  S
Zr1159     O1178   2.461       .  S
Zr1159     O1186   2.464       .  S
Zr1159     O1174   2.491       .  S
Zr1159     O1165   2.417       .  S
Zr1159     O1166   2.423   1_565  S
Zr1159     O1167   2.399   1_655  S
Zr1159     O1168   2.422       .  S
Zr1160     O1179   2.438   1_545  S
Zr1160     O1172   2.435       .  S
Zr1160     O1173   2.403   1_545  S
Zr1160     O1166   2.397   1_455  S
Zr1160     O1167   2.380   1_545  S
Zr1161     O1163   2.435       .  S
Zr1161     O1185   2.436   1_565  S
Zr1161     O1187   2.411   1_554  S
Zr1161     O1165   2.387   1_554  S
Zr1161     O1168   2.395   1_554  S
Zr1162     O1188   2.435       .  S
Zr1162     O1189   2.435       .  S
Zr1162     O1164   2.440       .  S
Zr1162     O1165   2.375   1_545  S
Zr1162     O1166   2.387       .  S
O1163      H1200   0.990       .  S
O1164      H1195   0.990       .  S
O1164      H1209   0.990       .  S
O1166      H1192   0.964       .  S
O1167     Zr1177   2.385   1_556  S
O1168     Zr1177   2.376   1_656  S
O1168      H1193   0.966       .  S
C1169      C1571   1.472       .  S
C1170      C1584   1.471       .  S
C1171      C1619   1.473       .  S
O1172      H1208   0.990       .  S
O1173      C1175   1.278   1_455  A
O1174      C1175   1.294       .  A
C1175      C3315   1.476   1_655  S
O1176     Zr1177   2.438       .  S
O1176      H1205   0.990       .  S
Zr1177     O1180   2.437       .  S
Zr1177     O1181   2.438   1_455  S
Zr1177     O1182   2.395   1_554  S
O1178      C1183   1.282       .  A
O1179      H1196   0.989       .  S
O1179      H1211   0.990       .  S
O1180      H1197   0.990   1_554  S
O1181      H1201   0.990       .  S
O1181      H1210   0.990   1_655  S
O1182      C1183   1.266   1_455  A
C1183      C2739   1.466       .  S
O1184      H1203   0.991       .  S
O1184      H1207   0.990       .  S
O1185      H1199   0.989       .  S
O1185      H1206   0.990       .  S
O1186      C1190   1.286       .  A
O1187      C1190   1.270       .  A
O1188      H1198   0.990       .  S
O1189      H1202   0.991       .  S
C1190      C3443   1.465       .  S
C1213      C1214   1.557       .  S
C1213      C1219   1.558       .  S
C1213      C1217   1.549       .  S
C1213      C1904   1.527       .  S
C1214      H1221   1.085       .  S
C1214      C1215   1.372       .  D
C1215      C1216   1.519       .  S
C1215      C1552   1.480   1_655  S
C1216      C1220   1.517       .  S
C1216      C1218   1.519   1_565  S
C1216      H1222   1.109       .  S
C1217      H1223   1.085   1_565  S
C1217      C1218   1.369   1_565  D
C1218      C1536   1.476       .  S
C1219      H1224   1.085       .  S
C1219      C1220   1.369       .  D
C1220      C1587   1.477       .  S
C1225      C1226   1.556       .  S
C1225      C1231   1.553       .  S
C1225      C1229   1.562       .  S
C1225      C2944   1.548       .  S
C1226      H1233   1.083       .  S
C1226      C1227   1.366       .  D
C1227      C1228   1.517       .  S
C1227      C1504   1.474   1_556  S
C1228      C1232   1.524       .  S
C1228      C1230   1.521       .  S
C1228      H1234   1.111       .  S
C1229      H1235   1.085       .  S
C1229      C1230   1.376       .  D
C1230      C1520   1.490   1_655  S
C1231      H1236   1.085       .  S
C1231      C1232   1.374       .  D
C1232      C1568   1.483       .  S
Zr1237     O1238   2.439       .  S
Zr1237     O1239   2.481       .  S
Zr1237     O1240   2.482       .  S
Zr1237     O1243   2.496       .  S
Zr1237     O1245   2.394       .  S
Zr1237     O1246   2.403   1_556  S
Zr1237     O1247   2.436       .  S
Zr1237     O1248   2.402       .  S
O1238      H1294   0.990       .  S
O1238      H1302   0.990       .  S
O1239      C1259   1.290       .  A
O1240      C1261   1.289       .  A
O1241     Zr1251   2.413       .  S
O1241      C1260   1.281   1_554  A
O1242     Zr1250   2.410       .  S
O1242      C1261   1.274       .  A
O1243      C1260   1.296       .  A
O1244     Zr1252   2.388   1_556  S
O1244      C1259   1.276       .  A
O1245     Zr1250   2.396       .  S
O1245     Zr1252   2.375   1_556  S
O1246     Zr1251   2.392       .  S
O1246     Zr1252   2.383       .  S
O1246      H1281   0.967       .  S
O1247     Zr1250   2.402       .  S
O1247     Zr1267   2.378       .  S
O1247      H1284   0.964       .  S
O1248     Zr1251   2.382   1_556  S
O1248     Zr1267   2.370       .  S
Zr1249     O1274   2.438       .  S
Zr1249     O1268   2.480       .  S
Zr1249     O1276   2.485       .  S
Zr1249     O1264   2.494   1_554  S
Zr1249     O1255   2.413       .  S
Zr1249     O1256   2.423   1_554  S
Zr1249     O1257   2.393   1_554  S
Zr1249     O1258   2.399       .  S
Zr1250     O1269   2.437       .  S
Zr1250     O1262   2.436       .  S
Zr1250     O1263   2.417       .  S
Zr1250     O1256   2.394       .  S
Zr1250     O1257   2.393       .  S
Zr1251     O1253   2.437       .  S
Zr1251     O1275   2.436       .  S
Zr1251     O1277   2.416       .  S
Zr1251     O1255   2.381       .  S
Zr1251     O1258   2.399       .  S
Zr1252     O1278   2.437       .  S
Zr1252     O1279   2.434       .  S
Zr1252     O1254   2.437   1_554  S
Zr1252     O1255   2.382       .  S
Zr1252     O1256   2.380   1_554  S
O1253      H1290   0.990       .  S
O1254      H1285   0.990   1_556  S
O1254      H1299   0.990       .  S
O1256      H1282   0.963       .  S
O1257     Zr1267   2.385       .  S
O1258     Zr1267   2.380   1_554  S
O1258      H1283   0.963       .  S
C1259      C2723   1.480       .  S
C1260      C3088   1.481       .  S
C1261      C3251   1.480       .  S
O1262      H1298   0.991       .  S
O1263      C1265   1.280       .  A
O1264      C1265   1.295       .  A
C1265      C1523   1.482       .  S
O1266     Zr1267   2.436       .  S
O1266      H1295   0.990       .  S
Zr1267     O1270   2.437       .  S
Zr1267     O1271   2.441       .  S
Zr1267     O1272   2.373       .  S
O1268      C1273   1.291   1_554  A
O1269      H1286   0.989       .  S
O1269      H1301   0.990       .  S
O1270      H1287   0.990       .  S
O1271      H1291   0.990       .  S
O1271      H1300   0.990       .  S
O1272      C1273   1.272       .  A
C1273      C1603   1.470       .  S
O1274      H1293   0.990       .  S
O1274      H1297   0.990       .  S
O1275      H1289   0.990       .  S
O1275      H1296   0.990       .  S
O1276      C1280   1.291       .  A
O1277      C1280   1.276       .  A
O1278      H1288   0.990       .  S
O1279      H1292   0.990       .  S
C1280      C1488   1.482       .  S
Zr1303     O1304   2.439       .  S
Zr1303     O1305   2.471       .  S
Zr1303     O1306   2.455       .  S
Zr1303     O1309   2.482       .  S
Zr1303     O1311   2.402       .  S
Zr1303     O1312   2.394   1_565  S
Zr1303     O1313   2.445       .  S
Zr1303     O1314   2.410       .  S
O1304      H1360   0.990       .  S
O1304      H1368   0.991       .  S
O1305      C1325   1.290   1_565  A
O1306      C1327   1.283       .  A
O1307     Zr1317   2.404       .  S
O1307      C1326   1.274       .  A
O1308     Zr1316   2.412       .  S
O1308      C1327   1.272       .  A
O1309      C1326   1.291   1_565  A
O1310     Zr1318   2.393       .  S
O1310      C1325   1.276       .  A
O1311     Zr1316   2.398       .  S
O1311     Zr1318   2.375   1_565  S
O1312     Zr1317   2.393       .  S
O1312     Zr1318   2.380       .  S
O1312      H1347   0.966       .  S
O1313     Zr1316   2.393       .  S
O1313     Zr1333   2.374       .  S
O1313      H1350   0.965       .  S
O1314     Zr1317   2.380   1_565  S
O1314     Zr1333   2.388       .  S
Zr1315     O1340   2.440       .  S
Zr1315     O1334   2.463       .  S
Zr1315     O1342   2.488       .  S
Zr1315     O1330   2.482       .  S
Zr1315     O1321   2.408       .  S
Zr1315     O1322   2.424       .  S
Zr1315     O1323   2.395   1_545  S
Zr1315     O1324   2.402       .  S
Zr1316     O1335   2.437       .  S
Zr1316     O1328   2.435       .  S
Zr1316     O1329   2.411       .  S
Zr1316     O1322   2.396   1_565  S
Zr1316     O1323   2.385       .  S
Zr1317     O1319   2.435       .  S
Zr1317     O1341   2.437       .  S
Zr1317     O1343   2.400       .  S
Zr1317     O1321   2.389       .  S
Zr1317     O1324   2.396       .  S
Zr1318     O1344   2.434       .  S
Zr1318     O1345   2.436       .  S
Zr1318     O1320   2.439       .  S
Zr1318     O1321   2.377       .  S
Zr1318     O1322   2.380       .  S
O1319      H1356   0.990       .  S
O1320      H1351   0.991       .  S
O1320      H1365   0.990   1_545  S
O1322      H1348   0.964       .  S
O1323     Zr1333   2.384       .  S
O1324     Zr1333   2.376   1_545  S
O1324      H1349   0.965       .  S
C1325      C1728   1.473       .  S
C1326      C2819   1.477       .  S
C1327      C2643   1.470       .  S
O1328      H1364   0.991       .  S
O1329      C1331   1.279       .  A
O1330      C1331   1.293   1_545  A
C1331      C1632   1.474       .  S
O1332     Zr1333   2.437       .  S
O1332      H1361   0.991       .  S
Zr1333     O1336   2.436       .  S
Zr1333     O1337   2.439       .  S
Zr1333     O1338   2.398       .  S
O1334      C1339   1.289   1_545  A
O1335      H1352   0.990       .  S
O1335      H1367   0.990       .  S
O1336      H1353   0.991       .  S
O1337      H1357   0.990       .  S
O1337      H1366   0.989   1_565  S
O1338      C1339   1.277       .  A
C1339      C1555   1.470       .  S
O1340      H1359   0.990       .  S
O1340      H1363   0.990       .  S
O1341      H1355   0.990       .  S
O1341      H1362   0.990       .  S
O1342      C1346   1.291       .  A
O1343      C1346   1.271       .  A
O1344      H1354   0.989       .  S
O1345      H1358   0.990       .  S
C1346      C1472   1.479       .  S
Zr1369     O1370   2.440       .  S
Zr1369     O1371   2.475       .  S
Zr1369     O1372   2.475       .  S
Zr1369     O1375   2.477       .  S
Zr1369     O1377   2.392   1_655  S
Zr1369     O1378   2.405       .  S
Zr1369     O1379   2.425       .  S
Zr1369     O1380   2.416       .  S
O1370      H1426   0.990       .  S
O1370      H1434   0.990       .  S
O1371      C1391   1.290   1_655  A
O1372      C1393   1.292   1_655  A
O1373     Zr1383   2.407       .  S
O1373      C1392   1.267       .  A
O1374     Zr1382   2.418       .  S
O1374      C1393   1.281       .  A
O1375      C1392   1.286       .  A
O1376     Zr1384   2.379       .  S
O1376      C1391   1.272       .  A
O1377     Zr1382   2.388       .  S
O1377     Zr1384   2.388       .  S
O1378     Zr1383   2.407       .  S
O1378     Zr1384   2.369   1_655  S
O1378      H1413   0.967       .  S
O1379     Zr1382   2.401   1_655  S
O1379     Zr1399   2.380       .  S
O1379      H1416   0.963       .  S
O1380     Zr1383   2.384       .  S
O1380     Zr1399   2.372       .  S
Zr1381     O1406   2.440       .  S
Zr1381     O1400   2.470   1_455  S
Zr1381     O1408   2.476   1_455  S
Zr1381     O1396   2.456       .  S
Zr1381     O1387   2.404   1_455  S
Zr1381     O1388   2.445       .  S
Zr1381     O1389   2.401       .  S
Zr1381     O1390   2.401   1_455  S
Zr1382     O1401   2.438       .  S
Zr1382     O1394   2.437       .  S
Zr1382     O1395   2.421       .  S
Zr1382     O1388   2.401       .  S
Zr1382     O1389   2.401       .  S
Zr1383     O1385   2.435       .  S
Zr1383     O1407   2.437       .  S
Zr1383     O1409   2.401       .  S
Zr1383     O1387   2.384       .  S
Zr1383     O1390   2.391       .  S
Zr1384     O1410   2.438   1_455  S
Zr1384     O1411   2.436       .  S
Zr1384     O1386   2.438       .  S
Zr1384     O1387   2.379   1_455  S
Zr1384     O1388   2.378       .  S
O1385      H1422   0.990       .  S
O1386      H1417   0.991       .  S
O1386      H1431   0.990       .  S
O1388      H1414   0.965       .  S
O1389     Zr1399   2.378   1_455  S
O1390     Zr1399   2.384       .  S
O1390      H1415   0.965       .  S
C1391      C1699   1.468       .  S
C1392      C2067   1.471       .  S
C1393      C1651   1.472       .  S
O1394      H1430   0.990       .  S
O1395      C1397   1.273       .  A
O1396      C1397   1.282       .  A
C1397      C1459   1.473       .  S
O1398     Zr1399   2.438       .  S
O1398      H1427   0.990       .  S
Zr1399     O1402   2.439       .  S
Zr1399     O1403   2.439       .  S
Zr1399     O1404   2.371       .  S
O1400      C1405   1.288       .  A
O1401      H1418   0.990       .  S
O1401      H1433   0.989       .  S
O1402      H1419   0.990       .  S
O1403      H1423   0.990       .  S
O1403      H1432   0.990       .  S
O1404      C1405   1.272       .  A
C1405      C1539   1.466       .  S
O1406      H1425   0.990       .  S
O1406      H1429   0.990       .  S
O1407      H1421   0.990       .  S
O1407      H1428   0.990       .  S
O1408      C1412   1.292       .  A
O1409      C1412   1.278       .  A
O1410      H1420   0.990       .  S
O1411      H1424   0.990       .  S
C1412      C1507   1.469       .  S
C1435      C1436   1.557       .  S
C1435      C1441   1.557       .  S
C1435      C1439   1.551       .  S
C1435      C1795   1.541       .  S
C1436      H1443   1.086       .  S
C1436      C1437   1.371       .  D
C1437      C1438   1.517       .  S
C1437      C1491   1.481       .  S
C1438      C1442   1.525       .  S
C1438      C1440   1.520       .  S
C1438      H1444   1.112       .  S
C1439      H1445   1.086       .  S
C1439      C1440   1.368       .  D
C1440      C1456   1.471       .  S
C1441      H1446   1.085       .  S
C1441      C1442   1.375       .  D
C1442      C1475   1.481       .  S
C1447      C1715   1.554       .  S
C1447      C2083   1.547       .  S
C1447      C3107   1.552       .  S
C1447      C3488   1.552       .  S
C1448      C2208   1.548       .  S
C1448      C2544   1.554       .  S
C1448      C3155   1.547       .  S
C1448      C3427   1.555       .  S
C1449      C1454   1.379       .  A
C1449      C1450   1.405       .  A
C1449      O1455   1.323       .  A
C1450      C1451   1.406       .  A
C1450      H1461   1.082       .  S
C1451      C1460   1.362       .  A
C1451      C1452   1.380       .  A
C1452      C1453   1.402       .  A
C1452      O1458   1.320       .  A
C1453      C1454   1.402       .  A
C1453      H1462   1.082       .  S
C1454      C1457   1.357       .  A
O1455      C1456   1.332       .  A
C1456      C1457   1.391       .  A
C1457      H1463   1.082       .  S
O1458      C1459   1.331       .  A
C1459      C1460   1.394       .  A
C1460      H1464   1.081       .  S
C1465      C1470   1.379       .  A
C1465      C1466   1.405       .  A
C1465      O1471   1.325       .  A
C1466      C1467   1.407       .  A
C1466      H1477   1.082       .  S
C1467      C1476   1.360       .  A
C1467      C1468   1.380       .  A
C1468      C1469   1.405       .  A
C1468      O1474   1.325       .  A
C1469      C1470   1.406       .  A
C1469      H1478   1.082       .  S
C1470      C1473   1.359       .  A
O1471      C1472   1.333       .  A
C1472      C1473   1.396       .  A
C1473      H1479   1.083       .  S
O1474      C1475   1.332       .  A
C1475      C1476   1.394       .  A
C1476      H1480   1.083       .  S
C1481      C1486   1.379       .  A
C1481      C1482   1.406       .  A
C1481      O1487   1.317       .  A
C1482      C1483   1.403       .  A
C1482      H1493   1.082       .  S
C1483      C1492   1.369       .  A
C1483      C1484   1.378       .  A
C1484      C1485   1.411       .  A
C1484      O1490   1.319       .  A
C1485      C1486   1.408       .  A
C1485      H1494   1.082       .  S
C1486      C1489   1.374       .  A
O1487      C1488   1.333       .  A
C1488      C1489   1.396       .  A
C1489      H1495   1.082       .  S
O1490      C1491   1.335       .  A
C1491      C1492   1.390       .  A
C1492      H1496   1.082       .  S
C1497      C1502   1.379       .  A
C1497      C1498   1.405       .  A
C1497      O1503   1.314       .  A
C1498      C1499   1.402       .  A
C1498      H1509   1.082   1_655  S
C1499      C1508   1.367       .  A
C1499      C1500   1.379       .  A
C1500      C1501   1.404       .  A
C1500      O1506   1.313       .  A
C1501      C1502   1.400       .  A
C1501      H1510   1.082       .  S
C1502      C1505   1.365       .  A
O1503      C1504   1.332       .  A
C1504      C1505   1.391       .  A
C1505      H1511   1.082       .  S
O1506      C1507   1.332       .  A
C1507      C1508   1.392       .  A
C1508      H1512   1.082   1_655  S
C1513      C1518   1.378       .  A
C1513      C1514   1.412       .  A
C1513      O1519   1.330       .  A
C1514      C1515   1.413       .  A
C1514      H1525   1.082       .  S
C1515      C1524   1.368       .  A
C1515      C1516   1.379       .  A
C1516      C1517   1.403       .  A
C1516      O1522   1.323       .  A
C1517      C1518   1.404       .  A
C1517      H1526   1.082   1_556  S
C1518      C1521   1.357       .  A
O1519      C1520   1.337       .  A
C1520      C1521   1.394       .  A
C1521      H1527   1.083   1_556  S
O1522      C1523   1.331       .  A
C1523      C1524   1.400       .  A
C1524      H1528   1.083       .  S
C1529      C1534   1.378       .  A
C1529      C1530   1.406       .  A
C1529      O1535   1.311       .  A
C1530      C1531   1.400       .  A
C1530      H1541   1.082       .  S
C1531      C1540   1.371       .  A
C1531      C1532   1.379       .  A
C1532      C1533   1.402       .  A
C1532      O1538   1.308       .  A
C1533      C1534   1.397       .  A
C1533      H1542   1.082       .  S
C1534      C1537   1.367       .  A
O1535      C1536   1.332       .  A
C1536      C1537   1.389       .  A
C1537      H1543   1.082       .  S
O1538      C1539   1.330       .  A
C1539      C1540   1.391       .  A
C1540      H1544   1.082       .  S
C1545      C1550   1.378       .  A
C1545      C1546   1.402       .  A
C1545      O1551   1.308       .  A
C1546      C1547   1.398       .  A
C1546      H1557   1.083   1_565  S
C1547      C1556   1.365       .  A
C1547      C1548   1.380       .  A
C1548      C1549   1.408       .  A
C1548      O1554   1.315       .  A
C1549      C1550   1.403       .  A
C1549      H1558   1.082       .  S
C1550      C1553   1.373       .  A
O1551      C1552   1.331       .  A
C1552      C1553   1.393       .  A
C1553      H1559   1.082       .  S
O1554      C1555   1.333       .  A
C1555      C1556   1.390       .  A
C1556      H1560   1.083   1_565  S
C1561      C1566   1.378       .  A
C1561      C1562   1.405       .  A
C1561      O1567   1.314       .  A
C1562      C1563   1.402       .  A
C1562      H1573   1.082   1_656  S
C1563      C1572   1.368   1_556  A
C1563      C1564   1.379       .  A
C1564      C1565   1.407       .  A
C1564      O1570   1.316       .  A
C1565      C1566   1.403       .  A
C1565      H1574   1.082       .  S
C1566      C1569   1.370       .  A
O1567      C1568   1.333       .  A
C1568      C1569   1.393       .  A
C1569      H1575   1.082       .  S
O1570      C1571   1.333       .  A
C1571      C1572   1.392   1_556  A
C1572      H1576   1.082   1_655  S
C1577      C1582   1.379       .  A
C1577      C1578   1.409       .  A
C1577      O1583   1.316       .  A
C1578      C1579   1.405       .  A
C1578      H1589   1.082       .  S
C1579      C1588   1.373       .  A
C1579      C1580   1.379       .  A
C1580      C1581   1.403       .  A
C1580      O1586   1.310       .  A
C1581      C1582   1.399       .  A
C1581      H1590   1.082   1_655  S
C1582      C1585   1.366   1_565  A
O1583      C1584   1.334   1_565  A
C1584      C1585   1.390       .  A
C1585      H1591   1.082   1_655  S
O1586      C1587   1.331       .  A
C1587      C1588   1.393       .  A
C1588      H1592   1.082       .  S
C1593      C1598   1.379       .  A
C1593      C1594   1.407       .  A
C1593      O1599   1.314       .  A
C1594      C1595   1.402       .  A
C1594      H1605   1.082   1_556  S
C1595      C1604   1.371       .  A
C1595      C1596   1.379       .  A
C1596      C1597   1.403       .  A
C1596      O1602   1.311       .  A
C1597      C1598   1.399       .  A
C1597      H1606   1.082       .  S
C1598      C1601   1.366       .  A
O1599      C1600   1.333       .  A
C1600      C1601   1.390       .  A
C1601      H1607   1.082       .  S
O1602      C1603   1.332       .  A
C1603      C1604   1.391       .  A
C1604      H1608   1.082   1_556  S
C1609      C1614   1.379       .  A
C1609      C1610   1.402       .  A
C1609      O1615   1.313       .  A
C1610      C1611   1.399   1_565  A
C1610      H1621   1.082   1_556  S
C1611      C1620   1.361   1_556  A
C1611      C1612   1.378       .  A
C1612      C1613   1.410       .  A
C1612      O1618   1.321       .  A
C1613      C1614   1.408   1_545  A
C1613      H1622   1.082       .  S
C1614      C1617   1.372       .  A
O1615      C1616   1.330       .  A
C1616      C1617   1.394       .  A
C1617      H1623   1.082       .  S
O1618      C1619   1.335       .  A
C1619      C1620   1.390   1_556  A
C1620      H1624   1.083       .  S
C1625      C1630   1.379       .  A
C1625      C1626   1.409       .  A
C1625      O1631   1.317       .  A
C1626      C1627   1.405       .  A
C1626      H1637   1.082       .  S
C1627      C1636   1.373       .  A
C1627      C1628   1.379       .  A
C1628      C1629   1.403       .  A
C1628      O1634   1.312       .  A
C1629      C1630   1.400       .  A
C1629      H1638   1.082   1_565  S
C1630      C1633   1.367       .  A
O1631      C1632   1.334       .  A
C1632      C1633   1.391       .  A
C1633      H1639   1.083   1_565  S
O1634      C1635   1.330       .  A
C1635      C1636   1.394       .  A
C1636      H1640   1.082       .  S
C1641      C1646   1.379   1_655  A
C1641      C1642   1.404       .  A
C1641      O1647   1.313       .  A
C1642      C1643   1.401       .  A
C1642      H1653   1.082       .  S
C1643      C1652   1.366       .  A
C1643      C1644   1.379   1_655  A
C1644      C1645   1.407       .  A
C1644      O1650   1.317       .  A
C1645      C1646   1.403       .  A
C1645      H1654   1.082       .  S
C1646      C1649   1.370       .  A
O1647      C1648   1.332   1_655  A
C1648      C1649   1.392       .  A
C1649      H1655   1.082       .  S
O1650      C1651   1.333       .  A
C1651      C1652   1.392   1_455  A
C1652      H1656   1.083       .  S
C1657      C1662   1.379   1_455  A
C1657      C1658   1.404       .  A
C1657      O1663   1.314       .  A
C1658      C1659   1.400       .  A
C1658      H1669   1.082       .  S
C1659      C1668   1.365       .  A
C1659      C1660   1.379   1_455  A
C1660      C1661   1.402       .  A
C1660      O1666   1.311       .  A
C1661      C1662   1.399       .  A
C1661      H1670   1.082       .  S
C1662      C1665   1.364       .  A
O1663      C1664   1.331   1_455  A
C1664      C1665   1.391       .  A
C1665      H1671   1.083       .  S
O1666      C1667   1.329   1_655  A
C1667      C1668   1.390       .  A
C1668      H1672   1.083       .  S
C1673      C1678   1.379   1_655  A
C1673      C1674   1.404       .  A
C1673      O1679   1.315       .  A
C1674      C1675   1.401       .  A
C1674      H1685   1.082       .  S
C1675      C1684   1.365       .  A
C1675      C1676   1.379   1_655  A
C1676      C1677   1.407       .  A
C1676      O1682   1.318       .  A
C1677      C1678   1.404       .  A
C1677      H1686   1.082       .  S
C1678      C1681   1.369       .  A
O1679      C1680   1.332   1_655  A
C1680      C1681   1.392       .  A
C1681      H1687   1.082       .  S
O1682      C1683   1.334       .  A
C1683      C1684   1.391   1_455  A
C1684      H1688   1.082       .  S
C1689      C1694   1.379       .  A
C1689      C1690   1.401   1_455  A
C1689      O1695   1.309   1_455  A
C1690      C1691   1.396       .  A
C1690      H1701   1.082       .  S
C1691      C1700   1.365       .  A
C1691      C1692   1.379   1_655  A
C1692      C1693   1.408       .  A
C1692      O1698   1.315       .  A
C1693      C1694   1.403       .  A
C1693      H1702   1.082       .  S
C1694      C1697   1.370       .  A
O1695      C1696   1.329   1_655  A
C1696      C1697   1.394       .  A
C1697      H1703   1.082       .  S
O1698      C1699   1.334       .  A
C1699      C1700   1.388   1_455  A
C1700      H1704   1.082       .  S
C1705      C1710   1.375       .  A
C1705      C1706   1.419       .  A
C1705      O1711   1.334       .  A
C1706      C1707   1.419       .  A
C1706      H1717   1.082       .  S
C1707      C1716   1.377       .  A
C1707      C1708   1.377       .  A
C1708      C1709   1.410       .  A
C1708      O1714   1.327       .  A
C1709      C1710   1.411       .  A
C1709      H1718   1.082       .  S
C1710      C1713   1.368       .  A
O1711      C1712   1.343       .  A
C1712      C1713   1.402       .  A
C1713      H1719   1.080       .  S
O1714      C1715   1.337       .  A
C1715      C1716   1.405       .  A
C1716      H1720   1.082       .  S
C1721      C1726   1.379       .  A
C1721      C1722   1.408       .  A
C1721      O1727   1.314       .  A
C1722      C1723   1.403       .  A
C1722      H1733   1.082       .  S
C1723      C1732   1.374       .  A
C1723      C1724   1.378       .  A
C1724      C1725   1.406       .  A
C1724      O1730   1.311       .  A
C1725      C1726   1.401       .  A
C1725      H1734   1.082   1_545  S
C1726      C1729   1.370       .  A
O1727      C1728   1.333       .  A
C1728      C1729   1.392       .  A
C1729      H1735   1.082   1_545  S
O1730      C1731   1.333       .  A
C1731      C1732   1.394       .  A
C1732      H1736   1.082       .  S
C1737      C1742   1.379   1_545  A
C1737      C1738   1.411       .  A
C1737      O1743   1.318       .  A
C1738      C1739   1.407       .  A
C1738      H1749   1.082       .  S
C1739      C1748   1.377       .  A
C1739      C1740   1.378       .  A
C1740      C1741   1.401   1_545  A
C1740      O1746   1.308       .  A
C1741      C1742   1.397       .  A
C1741      H1750   1.083       .  S
C1742      C1745   1.364       .  A
O1743      C1744   1.335   1_545  A
C1744      C1745   1.390       .  A
C1745      H1751   1.083       .  S
O1746      C1747   1.331       .  A
C1747      C1748   1.395       .  A
C1748      H1752   1.082       .  S
C1753      C1758   1.381       .  A
C1753      C1754   1.400       .  A
C1753      O1759   1.319       .  A
C1754      C1755   1.401       .  A
C1754      H1765   1.082       .  S
C1755      C1764   1.353       .  A
C1755      C1756   1.380       .  A
C1756      C1757   1.404       .  A
C1756      O1762   1.323       .  A
C1757      C1758   1.405       .  A
C1757      H1766   1.082       .  S
C1758      C1761   1.359       .  A
O1759      C1760   1.329       .  A
C1760      C1761   1.391       .  A
C1761      H1767   1.083       .  S
O1762      C1763   1.332       .  A
C1763      C1764   1.392       .  A
C1764      H1768   1.083       .  S
C1769      C1774   1.377       .  A
C1769      C1770   1.414       .  A
C1769      O1775   1.326       .  A
C1770      C1771   1.412       .  A
C1770      H1781   1.082       .  S
C1771      C1780   1.373       .  A
C1771      C1772   1.377       .  A
C1772      C1773   1.411       .  A
C1772      O1778   1.325       .  A
C1773      C1774   1.410       .  A
C1773      H1782   1.082       .  S
C1774      C1777   1.373       .  A
O1775      C1776   1.339       .  A
C1776      C1777   1.398       .  A
C1777      H1783   1.081       .  S
O1778      C1779   1.338       .  A
C1779      C1780   1.403       .  A
C1780      H1784   1.082       .  S
C1785      C1790   1.376       .  A
C1785      C1786   1.414       .  A
C1785      O1791   1.330       .  A
C1786      C1787   1.415       .  A
C1786      H1797   1.082       .  S
C1787      C1796   1.372       .  A
C1787      C1788   1.378       .  A
C1788      C1789   1.413       .  A
C1788      O1794   1.331       .  A
C1789      C1790   1.414       .  A
C1789      H1798   1.082       .  S
C1790      C1793   1.370       .  A
O1791      C1792   1.341       .  A
C1792      C1793   1.404       .  A
C1793      H1799   1.081       .  S
O1794      C1795   1.338       .  A
C1795      C1796   1.400       .  A
C1796      H1800   1.082       .  S
C1801      C1806   1.377       .  A
C1801      C1802   1.414       .  A
C1801      O1807   1.330       .  A
C1802      C1803   1.415       .  A
C1802      H1813   1.082       .  S
C1803      C1812   1.374       .  A
C1803      C1804   1.376       .  A
C1804      C1805   1.416       .  A
C1804      O1810   1.331       .  A
C1805      C1806   1.416       .  A
C1805      H1814   1.082       .  S
C1806      C1809   1.375       .  A
O1807      C1808   1.340       .  A
C1808      C1809   1.402       .  A
C1809      H1815   1.082       .  S
O1810      C1811   1.341       .  A
C1811      C1812   1.402       .  A
C1812      H1816   1.081       .  S
C1817      C1822   1.378       .  A
C1817      C1818   1.401       .  A
C1817      O1823   1.307       .  A
C1818      C1819   1.396       .  A
C1818      H1829   1.083       .  S
C1819      C1828   1.363       .  A
C1819      C1820   1.380       .  A
C1820      C1821   1.408       .  A
C1820      O1826   1.315       .  A
C1821      C1822   1.403       .  A
C1821      H1830   1.082       .  S
C1822      C1825   1.372       .  A
O1823      C1824   1.330       .  A
C1824      C1825   1.392       .  A
C1825      H1831   1.082       .  S
O1826      C1827   1.333       .  A
C1827      C1828   1.388       .  A
C1828      H1832   1.083       .  S
C1833      C1838   1.378       .  A
C1833      C1834   1.404       .  A
C1833      O1839   1.316       .  A
C1834      C1835   1.402       .  A
C1834      H1845   1.082       .  S
C1835      C1844   1.364       .  A
C1835      C1836   1.378       .  A
C1836      C1837   1.408       .  A
C1836      O1842   1.321       .  A
C1837      C1838   1.406       .  A
C1837      H1846   1.082       .  S
C1838      C1841   1.369       .  A
O1839      C1840   1.332       .  A
C1840      C1841   1.393       .  A
C1841      H1847   1.082       .  S
O1842      C1843   1.334       .  A
C1843      C1844   1.393       .  A
C1844      H1848   1.083       .  S
C1849      C1854   1.377       .  A
C1849      C1850   1.411       .  A
C1849      O1855   1.328       .  A
C1850      C1851   1.411       .  A
C1850      H1861   1.082       .  S
C1851      C1860   1.368       .  A
C1851      C1852   1.378       .  A
C1852      C1853   1.411       .  A
C1852      O1858   1.328       .  A
C1853      C1854   1.412       .  A
C1853      H1862   1.082       .  S
C1854      C1857   1.368       .  A
O1855      C1856   1.338       .  A
C1856      C1857   1.405       .  A
C1857      H1863   1.081       .  S
O1858      C1859   1.337       .  A
C1859      C1860   1.396       .  A
C1860      H1864   1.082       .  S
C1865      C1870   1.379       .  A
C1865      C1866   1.403       .  A
C1865      O1871   1.310       .  A
C1866      C1867   1.399       .  A
C1866      H1877   1.082   1_655  S
C1867      C1876   1.366       .  A
C1867      C1868   1.379       .  A
C1868      C1869   1.405       .  A
C1868      O1874   1.314       .  A
C1869      C1870   1.401       .  A
C1869      H1878   1.082       .  S
C1870      C1873   1.369       .  A
O1871      C1872   1.330       .  A
C1872      C1873   1.391       .  A
C1873      H1879   1.082       .  S
O1874      C1875   1.332       .  A
C1875      C1876   1.390       .  A
C1876      H1880   1.083   1_655  S
C1881      C1886   1.379       .  A
C1881      C1882   1.407       .  A
C1881      O1887   1.319       .  A
C1882      C1883   1.405       .  A
C1882      H1893   1.082       .  S
C1883      C1892   1.367       .  A
C1883      C1884   1.380       .  A
C1884      C1885   1.403       .  A
C1884      O1890   1.315   1_545  A
C1885      C1886   1.401       .  A
C1885      H1894   1.082       .  S
C1886      C1889   1.362       .  A
O1887      C1888   1.333       .  A
C1888      C1889   1.392       .  A
C1889      H1895   1.083       .  S
O1890      C1891   1.330       .  A
C1891      C1892   1.391   1_565  A
C1892      H1896   1.082       .  S
C1897      C1902   1.379       .  A
C1897      C1898   1.406       .  A
C1897      O1903   1.323       .  A
C1898      C1899   1.406       .  A
C1898      H1909   1.082       .  S
C1899      C1908   1.364       .  A
C1899      C1900   1.377       .  A
C1900      C1901   1.413       .  A
C1900      O1906   1.327       .  A
C1901      C1902   1.413       .  A
C1901      H1910   1.082       .  S
C1902      C1905   1.372       .  A
O1903      C1904   1.334       .  A
C1904      C1905   1.399       .  A
C1905      H1911   1.082       .  S
O1906      C1907   1.339       .  A
C1907      C1908   1.399       .  A
C1908      H1912   1.082       .  S
C1913      C1918   1.376       .  A
C1913      C1914   1.414       .  A
C1913      O1919   1.330       .  A
C1914      C1915   1.414       .  A
C1914      H1925   1.082       .  S
C1915      C1924   1.373       .  A
C1915      C1916   1.377       .  A
C1916      C1917   1.412       .  A
C1916      O1922   1.327       .  A
C1917      C1918   1.412       .  A
C1917      H1926   1.082       .  S
C1918      C1921   1.369       .  A
O1919      C1920   1.339       .  A
C1920      C1921   1.403       .  A
C1921      H1927   1.080       .  S
O1922      C1923   1.339       .  A
C1923      C1924   1.402       .  A
C1924      H1928   1.082       .  S
C1929      C1934   1.378       .  A
C1929      C1930   1.413       .  A
C1929      O1935   1.331       .  A
C1930      C1931   1.413       .  A
C1930      H1941   1.082       .  S
C1931      C1940   1.369       .  A
C1931      C1932   1.377       .  A
C1932      C1933   1.411       .  A
C1932      O1938   1.329       .  A
C1933      C1934   1.412       .  A
C1933      H1942   1.082       .  S
C1934      C1937   1.369       .  A
O1935      C1936   1.338       .  A
C1936      C1937   1.398       .  A
C1937      H1943   1.082       .  S
O1938      C1939   1.339       .  A
C1939      C1940   1.404       .  A
C1940      H1944   1.082       .  S
C1945      C1950   1.377       .  A
C1945      C1946   1.416       .  A
C1945      O1951   1.331       .  A
C1946      C1947   1.415       .  A
C1946      H1957   1.082       .  S
C1947      C1956   1.375       .  A
C1947      C1948   1.376       .  A
C1948      C1949   1.416       .  A
C1948      O1954   1.330       .  A
C1949      C1950   1.416       .  A
C1949      H1958   1.082       .  S
C1950      C1953   1.376       .  A
O1951      C1952   1.340       .  A
C1952      C1953   1.400       .  A
C1953      H1959   1.082       .  S
O1954      C1955   1.341       .  A
C1955      C1956   1.404       .  A
C1956      H1960   1.082       .  S
C1961      C1966   1.380       .  A
C1961      C1962   1.406       .  A
C1961      O1967   1.329       .  A
C1962      C1963   1.409       .  A
C1962      H1973   1.082       .  S
C1963      C1972   1.358       .  A
C1963      C1964   1.380       .  A
C1964      C1965   1.405       .  A
C1964      O1970   1.329       .  A
C1965      C1966   1.408       .  A
C1965      H1974   1.082       .  S
C1966      C1969   1.357       .  A
O1967      C1968   1.333       .  A
C1968      C1969   1.397       .  A
C1969      H1975   1.083       .  S
O1970      C1971   1.333       .  A
C1971      C1972   1.397       .  A
C1972      H1976   1.082       .  S
C1977      C1982   1.379       .  A
C1977      C1978   1.406       .  A
C1977      O1983   1.325       .  A
C1978      C1979   1.407       .  A
C1978      H1989   1.082       .  S
C1979      C1988   1.360       .  A
C1979      C1980   1.379       .  A
C1980      C1981   1.405       .  A
C1980      O1986   1.325       .  A
C1981      C1982   1.407       .  A
C1981      H1990   1.082       .  S
C1982      C1985   1.361       .  A
O1983      C1984   1.333       .  A
C1984      C1985   1.396       .  A
C1985      H1991   1.083       .  S
O1986      C1987   1.332       .  A
C1987      C1988   1.394       .  A
C1988      H1992   1.083       .  S
C1993      C1998   1.378       .  A
C1993      C1994   1.407       .  A
C1993      O1999   1.316       .  A
C1994      C1995   1.404       .  A
C1994      H2005   1.082       .  S
C1995      C2004   1.369       .  A
C1995      C1996   1.378       .  A
C1996      C1997   1.410       .  A
C1996      O2002   1.320       .  A
C1997      C1998   1.407       .  A
C1997      H2006   1.082       .  S
C1998      C2001   1.374       .  A
O1999      C2000   1.334       .  A
C2000      C2001   1.393       .  A
C2001      H2007   1.082       .  S
O2002      C2003   1.335       .  A
C2003      C2004   1.393       .  A
C2004      H2008   1.082       .  S
C2009      C2014   1.380       .  A
C2009      C2010   1.404       .  A
C2009      O2015   1.324       .  A
C2010      C2011   1.406       .  A
C2010      H2021   1.082       .  S
C2011      C2020   1.357       .  A
C2011      C2012   1.381       .  A
C2012      C2013   1.400       .  A
C2012      O2018   1.322       .  A
C2013      C2014   1.402       .  A
C2013      H2022   1.082       .  S
C2014      C2017   1.353       .  A
O2015      C2016   1.332       .  A
C2016      C2017   1.392       .  A
C2017      H2023   1.082       .  S
O2018      C2019   1.329       .  A
C2019      C2020   1.394       .  A
C2020      H2024   1.083       .  S
C2025      C2030   1.379   1_545  A
C2025      C2026   1.403       .  A
C2025      O2031   1.322       .  A
C2026      C2027   1.404       .  A
C2026      H2037   1.082       .  S
C2027      C2036   1.357       .  A
C2027      C2028   1.379   1_545  A
C2028      C2029   1.409       .  A
C2028      O2034   1.327       .  A
C2029      C2030   1.410       .  A
C2029      H2038   1.082       .  S
C2030      C2033   1.366       .  A
O2031      C2032   1.332   1_545  A
C2032      C2033   1.397       .  A
C2033      H2039   1.082       .  S
O2034      C2035   1.334       .  A
C2035      C2036   1.392   1_565  A
C2036      H2040   1.083       .  S
C2041      C2046   1.379       .  A
C2041      C2042   1.406       .  A
C2041      O2047   1.313       .  A
C2042      C2043   1.402       .  A
C2042      H2053   1.082       .  S
C2043      C2052   1.370       .  A
C2043      C2044   1.379       .  A
C2044      C2045   1.403       .  A
C2044      O2050   1.311       .  A
C2045      C2046   1.399       .  A
C2045      H2054   1.082       .  S
C2046      C2049   1.366       .  A
O2047      C2048   1.333       .  A
C2048      C2049   1.390       .  A
C2049      H2055   1.083       .  S
O2050      C2051   1.331       .  A
C2051      C2052   1.391       .  A
C2052      H2056   1.082       .  S
C2057      C2062   1.378       .  A
C2057      C2058   1.407       .  A
C2057      O2063   1.317       .  A
C2058      C2059   1.404       .  A
C2058      H2069   1.082       .  S
C2059      C2068   1.369       .  A
C2059      C2060   1.379       .  A
C2060      C2061   1.404       .  A
C2060      O2066   1.316       .  A
C2061      C2062   1.402       .  A
C2061      H2070   1.082       .  S
C2062      C2065   1.365       .  A
O2063      C2064   1.333       .  A
C2064      C2065   1.391       .  A
C2065      H2071   1.083       .  S
O2066      C2067   1.332       .  A
C2067      C2068   1.394       .  A
C2068      H2072   1.082       .  S
C2073      C2078   1.376       .  A
C2073      C2074   1.417       .  A
C2073      O2079   1.333       .  A
C2074      C2075   1.418       .  A
C2074      H2085   1.082       .  S
C2075      C2084   1.375       .  A
C2075      C2076   1.378       .  A
C2076      C2077   1.406       .  A
C2076      O2082   1.326       .  A
C2077      C2078   1.407       .  A
C2077      H2086   1.082       .  S
C2078      C2081   1.362       .  A
O2079      C2080   1.341       .  A
C2080      C2081   1.400       .  A
C2081      H2087   1.079       .  S
O2082      C2083   1.336       .  A
C2083      C2084   1.404       .  A
C2084      H2088   1.082       .  S
C2089      C2094   1.379       .  A
C2089      C2090   1.409       .  A
C2089      O2095   1.316       .  A
C2090      C2091   1.405       .  A
C2090      H2101   1.082       .  S
C2091      C2100   1.373       .  A
C2091      C2092   1.379       .  A
C2092      C2093   1.402       .  A
C2092      O2098   1.310       .  A
C2093      C2094   1.397       .  A
C2093      H2102   1.082       .  S
C2094      C2097   1.364       .  A
O2095      C2096   1.334       .  A
C2096      C2097   1.390       .  A
C2097      H2103   1.082       .  S
O2098      C2099   1.331       .  A
C2099      C2100   1.393       .  A
C2100      H2104   1.082       .  S
C2105      C2110   1.379       .  A
C2105      C2106   1.405       .  A
C2105      O2111   1.314       .  A
C2106      C2107   1.401       .  A
C2106      H2117   1.082       .  S
C2107      C2116   1.368       .  A
C2107      C2108   1.378       .  A
C2108      C2109   1.410       .  A
C2108      O2114   1.317       .  A
C2109      C2110   1.406       .  A
C2109      H2118   1.082       .  S
C2110      C2113   1.373       .  A
O2111      C2112   1.332       .  A
C2112      C2113   1.394       .  A
C2113      H2119   1.082       .  S
O2114      C2115   1.335       .  A
C2115      C2116   1.391       .  A
C2116      H2120   1.082       .  S
C2121      C2126   1.379       .  A
C2121      C2122   1.412       .  A
C2121      O2127   1.317       .  A
C2122      C2123   1.406       .  A
C2122      H2133   1.082       .  S
C2123      C2132   1.378       .  A
C2123      C2124   1.377       .  A
C2124      C2125   1.402       .  A
C2124      O2130   1.307       .  A
C2125      C2126   1.396       .  A
C2125      H2134   1.082       .  S
C2126      C2129   1.366       .  A
O2127      C2128   1.336       .  A
C2128      C2129   1.389       .  A
C2129      H2135   1.082       .  S
O2130      C2131   1.331       .  A
C2131      C2132   1.395       .  A
C2132      H2136   1.082       .  S
C2137      C2142   1.379       .  A
C2137      C2138   1.405       .  A
C2137      O2143   1.312       .  A
C2138      C2139   1.400       .  A
C2138      H2149   1.082       .  S
C2139      C2148   1.368       .  A
C2139      C2140   1.379       .  A
C2140      C2141   1.405       .  A
C2140      O2146   1.313       .  A
C2141      C2142   1.401       .  A
C2141      H2150   1.082       .  S
C2142      C2145   1.369       .  A
O2143      C2144   1.332       .  A
C2144      C2145   1.391       .  A
C2145      H2151   1.082       .  S
O2146      C2147   1.332       .  A
C2147      C2148   1.390       .  A
C2148      H2152   1.082       .  S
C2153      C2158   1.380       .  A
C2153      C2154   1.404       .  A
C2153      O2159   1.327       .  A
C2154      C2155   1.407       .  A
C2154      H2165   1.082       .  S
C2155      C2164   1.357       .  A
C2155      C2156   1.380       .  A
C2156      C2157   1.405       .  A
C2156      O2162   1.328       .  A
C2157      C2158   1.408       .  A
C2157      H2166   1.082       .  S
C2158      C2161   1.359       .  A
O2159      C2160   1.332       .  A
C2160      C2161   1.395       .  A
C2161      H2167   1.083       .  S
O2162      C2163   1.333       .  A
C2163      C2164   1.396       .  A
C2164      H2168   1.082       .  S
C2169      C2174   1.380       .  A
C2169      C2170   1.404       .  A
C2169      O2175   1.323       .  A
C2170      C2171   1.405       .  A
C2170      H2181   1.082       .  S
C2171      C2180   1.358       .  A
C2171      C2172   1.380       .  A
C2172      C2173   1.403       .  A
C2172      O2178   1.323       .  A
C2173      C2174   1.405       .  A
C2173      H2182   1.082       .  S
C2174      C2177   1.358       .  A
O2175      C2176   1.331       .  A
C2176      C2177   1.391       .  A
C2177      H2183   1.083       .  S
O2178      C2179   1.332       .  A
C2179      C2180   1.395       .  A
C2180      H2184   1.083       .  S
C2185      C2190   1.379       .  A
C2185      C2186   1.406       .  A
C2185      O2191   1.327       .  A
C2186      C2187   1.408       .  A
C2186      H2197   1.082       .  S
C2187      C2196   1.359       .  A
C2187      C2188   1.379       .  A
C2188      C2189   1.407       .  A
C2188      O2194   1.328       .  A
C2189      C2190   1.409       .  A
C2189      H2198   1.082       .  S
C2190      C2193   1.361       .  A
O2191      C2192   1.333       .  A
C2192      C2193   1.395       .  A
C2193      H2199   1.083       .  S
O2194      C2195   1.334       .  A
C2195      C2196   1.396       .  A
C2196      H2200   1.083       .  S
C2201      C2206   1.377       .  A
C2201      C2202   1.411       .  A
C2201      O2207   1.328       .  A
C2202      C2203   1.411       .  A
C2202      H2213   1.082       .  S
C2203      C2212   1.369       .  A
C2203      C2204   1.378       .  A
C2204      C2205   1.416       .  A
C2204      O2210   1.332       .  A
C2205      C2206   1.416       .  A
C2205      H2214   1.082       .  S
C2206      C2209   1.373       .  A
O2207      C2208   1.337       .  A
C2208      C2209   1.406       .  A
C2209      H2215   1.082       .  S
O2210      C2211   1.340       .  A
C2211      C2212   1.398       .  A
C2212      H2216   1.082       .  S
C2217      C2222   1.380       .  A
C2217      C2218   1.405       .  A
C2217      O2223   1.325       .  A
C2218      C2219   1.407       .  A
C2218      H2229   1.082       .  S
C2219      C2228   1.359       .  A
C2219      C2220   1.379       .  A
C2220      C2221   1.406       .  A
C2220      O2226   1.326       .  A
C2221      C2222   1.408       .  A
C2221      H2230   1.082       .  S
C2222      C2225   1.360       .  A
O2223      C2224   1.332       .  A
C2224      C2225   1.394       .  A
C2225      H2231   1.083       .  S
O2226      C2227   1.333       .  A
C2227      C2228   1.397       .  A
C2228      H2232   1.083       .  S
C2233      C2238   1.379       .  A
C2233      C2234   1.409   1_554  A
C2233      O2239   1.315       .  A
C2234      C2235   1.404       .  A
C2234      H2245   1.082       .  S
C2235      C2244   1.373       .  A
C2235      C2236   1.378   1_556  A
C2236      C2237   1.405       .  A
C2236      O2242   1.313   1_554  A
C2237      C2238   1.401       .  A
C2237      H2246   1.082       .  S
C2238      C2241   1.370       .  A
O2239      C2240   1.335       .  A
C2240      C2241   1.390       .  A
C2241      H2247   1.082       .  S
O2242      C2243   1.333       .  A
C2243      C2244   1.394       .  A
C2244      H2248   1.082       .  S
C2249      C2254   1.379       .  A
C2249      C2250   1.408   1_545  A
C2249      O2255   1.316       .  A
C2250      C2251   1.404       .  A
C2250      H2261   1.082       .  S
C2251      C2260   1.373       .  A
C2251      C2252   1.378       .  A
C2252      C2253   1.406   1_565  A
C2252      O2258   1.314       .  A
C2253      C2254   1.401       .  A
C2253      H2262   1.082       .  S
C2254      C2257   1.369       .  A
O2255      C2256   1.333       .  A
C2256      C2257   1.391       .  A
C2257      H2263   1.082       .  S
O2258      C2259   1.333       .  A
C2259      C2260   1.393       .  A
C2260      H2264   1.082       .  S
C2265      C2270   1.379       .  A
C2265      C2266   1.404   1_565  A
C2265      O2271   1.311   1_565  A
C2266      C2267   1.399       .  A
C2266      H2277   1.082       .  S
C2267      C2276   1.367       .  A
C2267      C2268   1.379   1_545  A
C2268      C2269   1.410       .  A
C2268      O2274   1.318       .  A
C2269      C2270   1.406       .  A
C2269      H2278   1.082       .  S
C2270      C2273   1.374       .  A
O2271      C2272   1.331   1_545  A
C2272      C2273   1.393       .  A
C2273      H2279   1.082       .  S
O2274      C2275   1.335       .  A
C2275      C2276   1.390   1_565  A
C2276      H2280   1.082       .  S
C2281      C2286   1.378       .  A
C2281      C2282   1.408       .  A
C2281      O2287   1.326       .  A
C2282      C2283   1.409       .  A
C2282      H2293   1.082       .  S
C2283      C2292   1.366       .  A
C2283      C2284   1.377       .  A
C2284      C2285   1.413       .  A
C2284      O2290   1.329       .  A
C2285      C2286   1.414       .  A
C2285      H2294   1.082       .  S
C2286      C2289   1.371       .  A
O2287      C2288   1.337       .  A
C2288      C2289   1.402       .  A
C2289      H2295   1.082       .  S
O2290      C2291   1.339       .  A
C2291      C2292   1.399       .  A
C2292      H2296   1.081       .  S
C2297      C2302   1.376       .  A
C2297      C2298   1.412       .  A
C2297      O2303   1.328       .  A
C2298      C2299   1.413       .  A
C2298      H2309   1.082       .  S
C2299      C2308   1.371       .  A
C2299      C2300   1.379       .  A
C2300      C2301   1.408       .  A
C2300      O2306   1.325       .  A
C2301      C2302   1.408       .  A
C2301      H2310   1.082       .  S
C2302      C2305   1.364       .  A
O2303      C2304   1.339       .  A
C2304      C2305   1.402       .  A
C2305      H2311   1.081       .  S
O2306      C2307   1.335       .  A
C2307      C2308   1.399       .  A
C2308      H2312   1.082       .  S
C2313      C2318   1.376       .  A
C2313      C2314   1.410       .  A
C2313      O2319   1.328       .  A
C2314      C2315   1.412       .  A
C2314      H2325   1.082       .  S
C2315      C2324   1.367       .  A
C2315      C2316   1.376       .  A
C2316      C2317   1.413       .  A
C2316      O2322   1.330       .  A
C2317      C2318   1.413       .  A
C2317      H2326   1.082       .  S
C2318      C2321   1.368       .  A
O2319      C2320   1.339       .  A
C2320      C2321   1.404       .  A
C2321      H2327   1.079       .  S
O2322      C2323   1.339       .  A
C2323      C2324   1.402       .  A
C2324      H2328   1.080       .  S
C2329      C2334   1.379       .  A
C2329      C2330   1.406       .  A
C2329      O2335   1.322       .  A
C2330      C2331   1.406       .  A
C2330      H2341   1.082       .  S
C2331      C2340   1.362       .  A
C2331      C2332   1.379       .  A
C2332      C2333   1.403       .  A
C2332      O2338   1.320       .  A
C2333      C2334   1.404       .  A
C2333      H2342   1.082       .  S
C2334      C2337   1.361       .  A
O2335      C2336   1.333       .  A
C2336      C2337   1.394       .  A
C2337      H2343   1.083       .  S
O2338      C2339   1.331       .  A
C2339      C2340   1.393       .  A
C2340      H2344   1.083       .  S
C2345      C2350   1.379       .  A
C2345      C2346   1.407       .  A
C2345      O2351   1.329       .  A
C2346      C2347   1.410       .  A
C2346      H2357   1.082       .  S
C2347      C2356   1.362       .  A
C2347      C2348   1.380       .  A
C2348      C2349   1.404       .  A
C2348      O2354   1.325       .  A
C2349      C2350   1.407       .  A
C2349      H2358   1.082       .  S
C2350      C2353   1.356       .  A
O2351      C2352   1.334       .  A
C2352      C2353   1.398       .  A
C2353      H2359   1.083       .  S
O2354      C2355   1.332       .  A
C2355      C2356   1.397       .  A
C2356      H2360   1.083       .  S
C2361      C2366   1.381       .  A
C2361      C2362   1.397       .  A
C2361      O2367   1.317       .  A
C2362      C2363   1.399       .  A
C2362      H2373   1.082       .  S
C2363      C2372   1.351       .  A
C2363      C2364   1.380       .  A
C2364      C2365   1.402       .  A
C2364      O2370   1.320       .  A
C2365      C2366   1.403       .  A
C2365      H2374   1.082       .  S
C2366      C2369   1.357       .  A
O2367      C2368   1.328       .  A
C2368      C2369   1.393       .  A
C2369      H2375   1.083       .  S
O2370      C2371   1.330       .  A
C2371      C2372   1.389       .  A
C2372      H2376   1.083       .  S
C2377      C2382   1.378       .  A
C2377      C2378   1.406       .  A
C2377      O2383   1.312       .  A
C2378      C2379   1.401       .  A
C2378      H2389   1.082       .  S
C2379      C2388   1.369       .  A
C2379      C2380   1.379       .  A
C2380      C2381   1.407       .  A
C2380      O2386   1.315       .  A
C2381      C2382   1.403       .  A
C2381      H2390   1.082       .  S
C2382      C2385   1.372       .  A
O2383      C2384   1.333       .  A
C2384      C2385   1.391       .  A
C2385      H2391   1.082       .  S
O2386      C2387   1.333       .  A
C2387      C2388   1.391       .  A
C2388      H2392   1.082       .  S
C2393      C2398   1.377       .  A
C2393      C2394   1.411       .  A
C2393      O2399   1.327       .  A
C2394      C2395   1.411       .  A
C2394      H2405   1.082       .  S
C2395      C2404   1.368       .  A
C2395      C2396   1.376       .  A
C2396      C2397   1.411       .  A
C2396      O2402   1.327       .  A
C2397      C2398   1.411       .  A
C2397      H2406   1.082       .  S
C2398      C2401   1.369       .  A
O2399      C2400   1.337       .  A
C2400      C2401   1.401       .  A
C2401      H2407   1.081       .  S
O2402      C2403   1.339       .  A
C2403      C2404   1.400       .  A
C2404      H2408   1.081       .  S
C2409      C2414   1.380       .  A
C2409      C2410   1.404       .  A
C2409      O2415   1.324       .  A
C2410      C2411   1.405       .  A
C2410      H2421   1.082   1_655  S
C2411      C2420   1.357       .  A
C2411      C2412   1.380       .  A
C2412      C2413   1.405       .  A
C2412      O2418   1.325       .  A
C2413      C2414   1.406       .  A
C2413      H2422   1.082       .  S
C2414      C2417   1.358       .  A
O2415      C2416   1.332       .  A
C2416      C2417   1.395       .  A
C2417      H2423   1.083       .  S
O2418      C2419   1.333       .  A
C2419      C2420   1.393       .  A
C2420      H2424   1.083   1_655  S
C2425      C2430   1.379       .  A
C2425      C2426   1.403       .  A
C2425      O2431   1.314       .  A
C2426      C2427   1.401       .  A
C2426      H2437   1.082       .  S
C2427      C2436   1.365       .  A
C2427      C2428   1.379       .  A
C2428      C2429   1.409       .  A
C2428      O2434   1.320       .  A
C2429      C2430   1.406       .  A
C2429      H2438   1.082       .  S
C2430      C2433   1.371       .  A
O2431      C2432   1.331       .  A
C2432      C2433   1.394       .  A
C2433      H2439   1.082       .  S
O2434      C2435   1.335       .  A
C2435      C2436   1.391       .  A
C2436      H2440   1.082       .  S
C2441      C2446   1.381       .  A
C2441      C2442   1.396       .  A
C2441      O2447   1.318       .  A
C2442      C2443   1.398       .  A
C2442      H2453   1.082       .  S
C2443      C2452   1.348       .  A
C2443      C2444   1.380       .  A
C2444      C2445   1.407       .  A
C2444      O2450   1.326       .  A
C2445      C2446   1.409       .  A
C2445      H2454   1.082       .  S
C2446      C2449   1.361       .  A
O2447      C2448   1.327       .  A
C2448      C2449   1.398       .  A
C2449      H2455   1.083       .  S
O2450      C2451   1.333       .  A
C2451      C2452   1.390       .  A
C2452      H2456   1.082       .  S
C2457      C2462   1.380       .  A
C2457      C2458   1.405       .  A
C2457      O2463   1.325       .  A
C2458      C2459   1.406       .  A
C2458      H2469   1.082       .  S
C2459      C2468   1.360       .  A
C2459      C2460   1.379       .  A
C2460      C2461   1.403       .  A
C2460      O2466   1.322       .  A
C2461      C2462   1.405       .  A
C2461      H2470   1.082       .  S
C2462      C2465   1.358       .  A
O2463      C2464   1.333       .  A
C2464      C2465   1.396       .  A
C2465      H2471   1.083       .  S
O2466      C2467   1.331       .  A
C2467      C2468   1.393       .  A
C2468      H2472   1.083       .  S
C2473      C2478   1.379       .  A
C2473      C2474   1.404       .  A
C2473      O2479   1.311       .  A
C2474      C2475   1.399       .  A
C2474      H2485   1.082       .  S
C2475      C2484   1.368       .  A
C2475      C2476   1.378       .  A
C2476      C2477   1.407       .  A
C2476      O2482   1.313       .  A
C2477      C2478   1.403       .  A
C2477      H2486   1.082       .  S
C2478      C2481   1.372       .  A
O2479      C2480   1.332       .  A
C2480      C2481   1.392       .  A
C2481      H2487   1.082       .  S
O2482      C2483   1.333       .  A
C2483      C2484   1.391       .  A
C2484      H2488   1.082       .  S
C2489      C2494   1.378       .  A
C2489      C2490   1.408       .  A
C2489      O2495   1.318       .  A
C2490      C2491   1.405       .  A
C2490      H2501   1.082       .  S
C2491      C2500   1.371       .  A
C2491      C2492   1.379       .  A
C2492      C2493   1.406       .  A
C2492      O2498   1.316       .  A
C2493      C2494   1.403       .  A
C2493      H2502   1.082       .  S
C2494      C2497   1.369       .  A
O2495      C2496   1.334       .  A
C2496      C2497   1.392       .  A
C2497      H2503   1.082       .  S
O2498      C2499   1.332       .  A
C2499      C2500   1.393       .  A
C2500      H2504   1.082       .  S
C2505      C2510   1.378       .  A
C2505      C2506   1.403       .  A
C2505      O2511   1.313       .  A
C2506      C2507   1.399       .  A
C2506      H2517   1.082       .  S
C2507      C2516   1.365       .  A
C2507      C2508   1.378       .  A
C2508      C2509   1.415       .  A
C2508      O2514   1.323       .  A
C2509      C2510   1.412       .  A
C2509      H2518   1.082       .  S
C2510      C2513   1.379       .  A
O2511      C2512   1.331       .  A
C2512      C2513   1.398       .  A
C2513      H2519   1.082       .  S
O2514      C2515   1.339       .  A
C2515      C2516   1.390       .  A
C2516      H2520   1.082       .  S
C2521      C2526   1.380       .  A
C2521      C2522   1.402       .  A
C2521      O2527   1.310       .  A
C2522      C2523   1.398       .  A
C2522      H2533   1.082       .  S
C2523      C2532   1.363       .  A
C2523      C2524   1.380       .  A
C2524      C2525   1.402       .  A
C2524      O2530   1.312       .  A
C2525      C2526   1.399       .  A
C2525      H2534   1.082       .  S
C2526      C2529   1.365       .  A
O2527      C2528   1.330       .  A
C2528      C2529   1.389       .  A
C2529      H2535   1.082       .  S
O2530      C2531   1.330       .  A
C2531      C2532   1.390       .  A
C2532      H2536   1.082       .  S
C2537      C2542   1.376       .  A
C2537      C2538   1.409       .  A
C2537      O2543   1.327       .  A
C2538      C2539   1.410       .  A
C2538      H2549   1.082       .  S
C2539      C2548   1.365       .  A
C2539      C2540   1.379       .  A
C2540      C2541   1.407       .  A
C2540      O2546   1.325       .  A
C2541      C2542   1.408       .  A
C2541      H2550   1.082       .  S
C2542      C2545   1.362       .  A
O2543      C2544   1.339       .  A
C2544      C2545   1.404       .  A
C2545      H2551   1.081       .  S
O2546      C2547   1.334       .  A
C2547      C2548   1.396       .  A
C2548      H2552   1.082       .  S
C2553      C2558   1.379       .  A
C2553      C2554   1.401       .  A
C2553      O2559   1.309       .  A
C2554      C2555   1.397       .  A
C2554      H2565   1.082       .  S
C2555      C2564   1.367       .  A
C2555      C2556   1.379       .  A
C2556      C2557   1.407       .  A
C2556      O2562   1.312       .  A
C2557      C2558   1.402       .  A
C2557      H2566   1.082       .  S
C2558      C2561   1.370       .  A
O2559      C2560   1.329       .  A
C2560      C2561   1.393       .  A
C2561      H2567   1.082       .  S
O2562      C2563   1.334       .  A
C2563      C2564   1.388       .  A
C2564      H2568   1.082       .  S
C2569      C2574   1.378       .  A
C2569      C2570   1.407       .  A
C2569      O2575   1.313       .  A
C2570      C2571   1.402       .  A
C2570      H2581   1.082       .  S
C2571      C2580   1.371       .  A
C2571      C2572   1.379       .  A
C2572      C2573   1.408       .  A
C2572      O2578   1.315       .  A
C2573      C2574   1.403       .  A
C2573      H2582   1.082       .  S
C2574      C2577   1.372       .  A
O2575      C2576   1.333       .  A
C2576      C2577   1.392       .  A
C2577      H2583   1.082       .  S
O2578      C2579   1.333       .  A
C2579      C2580   1.392       .  A
C2580      H2584   1.082       .  S
C2585      C2590   1.378       .  A
C2585      C2586   1.412       .  A
C2585      O2591   1.329       .  A
C2586      C2587   1.413       .  A
C2586      H2597   1.082       .  S
C2587      C2596   1.369       .  A
C2587      C2588   1.377       .  A
C2588      C2589   1.412       .  A
C2588      O2594   1.329       .  A
C2589      C2590   1.413       .  A
C2589      H2598   1.082       .  S
C2590      C2593   1.369       .  A
O2591      C2592   1.339       .  A
C2592      C2593   1.400       .  A
C2593      H2599   1.082       .  S
O2594      C2595   1.338       .  A
C2595      C2596   1.403       .  A
C2596      H2600   1.080       .  S
C2601      C2606   1.378       .  A
C2601      C2602   1.408       .  A
C2601      O2607   1.320       .  A
C2602      C2603   1.406       .  A
C2602      H2613   1.082       .  S
C2603      C2612   1.369       .  A
C2603      C2604   1.378       .  A
C2604      C2605   1.405       .  A
C2604      O2610   1.317       .  A
C2605      C2606   1.403       .  A
C2605      H2614   1.082       .  S
C2606      C2609   1.365       .  A
O2607      C2608   1.335       .  A
C2608      C2609   1.393       .  A
C2609      H2615   1.083       .  S
O2610      C2611   1.332       .  A
C2611      C2612   1.392       .  A
C2612      H2616   1.082       .  S
C2617      C2622   1.379       .  A
C2617      C2618   1.405       .  A
C2617      O2623   1.315       .  A
C2618      C2619   1.402       .  A
C2618      H2629   1.082       .  S
C2619      C2628   1.366       .  A
C2619      C2620   1.378       .  A
C2620      C2621   1.411       .  A
C2620      O2626   1.320       .  A
C2621      C2622   1.408       .  A
C2621      H2630   1.082       .  S
C2622      C2625   1.374       .  A
O2623      C2624   1.332       .  A
C2624      C2625   1.394       .  A
C2625      H2631   1.082       .  S
O2626      C2627   1.335       .  A
C2627      C2628   1.392       .  A
C2628      H2632   1.082       .  S
C2633      C2638   1.380       .  A
C2633      C2634   1.407       .  A
C2633      O2639   1.325       .  A
C2634      C2635   1.408       .  A
C2634      H2645   1.082       .  S
C2635      C2644   1.364       .  A
C2635      C2636   1.380       .  A
C2636      C2637   1.399       .  A
C2636      O2642   1.318       .  A
C2637      C2638   1.400       .  A
C2637      H2646   1.082       .  S
C2638      C2641   1.353       .  A
O2639      C2640   1.333       .  A
C2640      C2641   1.390       .  A
C2641      H2647   1.083       .  S
O2642      C2643   1.329       .  A
C2643      C2644   1.395       .  A
C2644      H2648   1.082       .  S
C2649      C2654   1.378       .  A
C2649      C2650   1.412       .  A
C2649      O2655   1.328       .  A
C2650      C2651   1.412       .  A
C2650      H2661   1.082       .  S
C2651      C2660   1.371       .  A
C2651      C2652   1.376       .  A
C2652      C2653   1.415       .  A
C2652      O2658   1.329       .  A
C2653      C2654   1.415       .  A
C2653      H2662   1.082       .  S
C2654      C2657   1.375       .  A
O2655      C2656   1.338       .  A
C2656      C2657   1.399       .  A
C2657      H2663   1.082       .  S
O2658      C2659   1.341       .  A
C2659      C2660   1.402       .  A
C2660      H2664   1.081       .  S
C2665      C2670   1.378       .  A
C2665      C2666   1.411       .  A
C2665      O2671   1.321       .  A
C2666      C2667   1.408       .  A
C2666      H2677   1.082       .  S
C2667      C2676   1.372       .  A
C2667      C2668   1.378       .  A
C2668      C2669   1.402       .  A
C2668      O2674   1.313       .  A
C2669      C2670   1.399       .  A
C2669      H2678   1.082       .  S
C2670      C2673   1.363       .  A
O2671      C2672   1.336       .  A
C2672      C2673   1.390       .  A
C2673      H2679   1.082       .  S
O2674      C2675   1.330       .  A
C2675      C2676   1.395       .  A
C2676      H2680   1.082       .  S
C2681      C2686   1.379       .  A
C2681      C2682   1.407       .  A
C2681      O2687   1.315       .  A
C2682      C2683   1.403       .  A
C2682      H2693   1.082       .  S
C2683      C2692   1.370       .  A
C2683      C2684   1.379       .  A
C2684      C2685   1.403       .  A
C2684      O2690   1.311       .  A
C2685      C2686   1.399       .  A
C2685      H2694   1.082       .  S
C2686      C2689   1.367       .  A
O2687      C2688   1.334       .  A
C2688      C2689   1.389       .  A
C2689      H2695   1.082       .  S
O2690      C2691   1.330       .  A
C2691      C2692   1.393       .  A
C2692      H2696   1.082       .  S
C2697      C2702   1.378       .  A
C2697      C2698   1.411       .  A
C2697      O2703   1.328       .  A
C2698      C2699   1.411       .  A
C2698      H2709   1.082       .  S
C2699      C2708   1.368       .  A
C2699      C2700   1.377       .  A
C2700      C2701   1.411       .  A
C2700      O2706   1.328       .  A
C2701      C2702   1.412       .  A
C2701      H2710   1.082       .  S
C2702      C2705   1.369       .  A
O2703      C2704   1.337       .  A
C2704      C2705   1.397       .  A
C2705      H2711   1.082       .  S
O2706      C2707   1.339       .  A
C2707      C2708   1.403       .  A
C2708      H2712   1.082       .  S
C2713      C2718   1.380   1_554  A
C2713      C2714   1.400       .  A
C2713      O2719   1.322       .  A
C2714      C2715   1.402   1_554  A
C2714      H2725   1.082       .  S
C2715      C2724   1.353       .  A
C2715      C2716   1.380       .  A
C2716      C2717   1.407       .  A
C2716      O2722   1.328       .  A
C2717      C2718   1.409       .  A
C2717      H2726   1.082       .  S
C2718      C2721   1.360       .  A
O2719      C2720   1.329       .  A
C2720      C2721   1.397   1_554  A
C2721      H2727   1.082       .  S
O2722      C2723   1.334       .  A
C2723      C2724   1.394       .  A
C2724      H2728   1.083       .  S
C2729      C2734   1.380   1_655  A
C2729      C2730   1.402       .  A
C2729      O2735   1.311       .  A
C2730      C2731   1.398   1_554  A
C2730      H2741   1.082       .  S
C2731      C2740   1.364       .  A
C2731      C2732   1.379   1_655  A
C2732      C2733   1.405   1_556  A
C2732      O2738   1.316       .  A
C2733      C2734   1.404       .  A
C2733      H2742   1.082   1_554  S
C2734      C2737   1.368       .  A
O2735      C2736   1.329   1_655  A
C2736      C2737   1.392       .  A
C2737      H2743   1.083       .  S
O2738      C2739   1.332   1_455  A
C2739      C2740   1.389       .  A
C2740      H2744   1.082       .  S
C2745      C2750   1.378       .  A
C2745      C2746   1.407   1_455  A
C2745      O2751   1.313       .  A
C2746      C2747   1.403   1_655  A
C2746      H2757   1.082       .  S
C2747      C2756   1.374   1_455  A
C2747      C2748   1.378       .  A
C2748      C2749   1.409       .  A
C2748      O2754   1.315       .  A
C2749      C2750   1.403       .  A
C2749      H2758   1.082       .  S
C2750      C2753   1.374       .  A
O2751      C2752   1.333       .  A
C2752      C2753   1.394       .  A
C2753      H2759   1.082       .  S
O2754      C2755   1.335       .  A
C2755      C2756   1.393   1_455  A
C2756      H2760   1.082       .  S
C2761      C2766   1.377       .  A
C2761      C2762   1.414       .  A
C2761      O2767   1.328       .  A
C2762      C2763   1.413       .  A
C2762      H2773   1.082       .  S
C2763      C2772   1.373       .  A
C2763      C2764   1.377       .  A
C2764      C2765   1.413       .  A
C2764      O2770   1.327       .  A
C2765      C2766   1.412       .  A
C2765      H2774   1.082       .  S
C2766      C2769   1.373       .  A
O2767      C2768   1.338       .  A
C2768      C2769   1.401       .  A
C2769      H2775   1.081       .  S
O2770      C2771   1.339       .  A
C2771      C2772   1.401       .  A
C2772      H2776   1.082       .  S
C2777      C2782   1.377       .  A
C2777      C2778   1.413       .  A
C2777      O2783   1.327       .  A
C2778      C2779   1.412       .  A
C2778      H2789   1.082       .  S
C2779      C2788   1.374       .  A
C2779      C2780   1.376       .  A
C2780      C2781   1.412       .  A
C2780      O2786   1.325       .  A
C2781      C2782   1.411       .  A
C2781      H2790   1.082       .  S
C2782      C2785   1.372       .  A
O2783      C2784   1.338       .  A
C2784      C2785   1.400       .  A
C2785      H2791   1.081       .  S
O2786      C2787   1.339       .  A
C2787      C2788   1.401       .  A
C2788      H2792   1.082       .  S
C2793      C2798   1.380   1_545  A
C2793      C2794   1.404       .  A
C2793      O2799   1.324       .  A
C2794      C2795   1.406       .  A
C2794      H2805   1.082       .  S
C2795      C2804   1.360       .  A
C2795      C2796   1.380       .  A
C2796      C2797   1.400       .  A
C2796      O2802   1.319       .  A
C2797      C2798   1.401   1_545  A
C2797      H2806   1.082   1_545  S
C2798      C2801   1.354       .  A
O2799      C2800   1.332   1_545  A
C2800      C2801   1.393       .  A
C2801      H2807   1.083       .  S
O2802      C2803   1.329       .  A
C2803      C2804   1.392       .  A
C2804      H2808   1.083       .  S
C2809      C2814   1.380       .  A
C2809      C2810   1.406       .  A
C2809      O2815   1.326       .  A
C2810      C2811   1.408       .  A
C2810      H2821   1.082       .  S
C2811      C2820   1.361       .  A
C2811      C2812   1.380       .  A
C2812      C2813   1.402       .  A
C2812      O2818   1.323       .  A
C2813      C2814   1.404       .  A
C2813      H2822   1.082   1_545  S
C2814      C2817   1.356       .  A
O2815      C2816   1.333       .  A
C2816      C2817   1.392       .  A
C2817      H2823   1.083   1_545  S
O2818      C2819   1.331       .  A
C2819      C2820   1.396       .  A
C2820      H2824   1.083       .  S
C2825      C2830   1.381       .  A
C2825      C2826   1.397       .  A
C2825      O2831   1.320       .  A
C2826      C2827   1.400       .  A
C2826      H2837   1.082       .  S
C2827      C2836   1.348       .  A
C2827      C2828   1.381       .  A
C2828      C2829   1.402       .  A
C2828      O2834   1.324       .  A
C2829      C2830   1.405       .  A
C2829      H2838   1.082       .  S
C2830      C2833   1.355       .  A
O2831      C2832   1.328       .  A
C2832      C2833   1.394       .  A
C2833      H2839   1.083       .  S
O2834      C2835   1.331       .  A
C2835      C2836   1.391       .  A
C2836      H2840   1.083       .  S
C2841      C2846   1.377       .  A
C2841      C2842   1.408       .  A
C2841      O2847   1.326       .  A
C2842      C2843   1.409       .  A
C2842      H2853   1.082       .  S
C2843      C2852   1.364       .  A
C2843      C2844   1.378       .  A
C2844      C2845   1.410       .  A
C2844      O2850   1.327       .  A
C2845      C2846   1.411       .  A
C2845      H2854   1.082       .  S
C2846      C2849   1.367       .  A
O2847      C2848   1.336       .  A
C2848      C2849   1.401       .  A
C2849      H2855   1.080       .  S
O2850      C2851   1.337       .  A
C2851      C2852   1.401       .  A
C2852      H2856   1.082       .  S
C2857      C2862   1.379   1_556  A
C2857      C2858   1.406       .  A
C2857      O2863   1.317       .  A
C2858      C2859   1.403   1_556  A
C2858      H2869   1.082       .  S
C2859      C2868   1.368       .  A
C2859      C2860   1.379       .  A
C2860      C2861   1.407       .  A
C2860      O2866   1.317       .  A
C2861      C2862   1.404       .  A
C2861      H2870   1.082       .  S
C2862      C2865   1.368   1_554  A
O2863      C2864   1.332       .  A
C2864      C2865   1.392       .  A
C2865      H2871   1.082       .  S
O2866      C2867   1.334       .  A
C2867      C2868   1.392       .  A
C2868      H2872   1.082       .  S
C2873      C2878   1.379       .  A
C2873      C2874   1.409       .  A
C2873      O2879   1.328       .  A
C2874      C2875   1.411       .  A
C2874      H2885   1.082       .  S
C2875      C2884   1.365       .  A
C2875      C2876   1.379       .  A
C2876      C2877   1.404       .  A
C2876      O2882   1.324       .  A
C2877      C2878   1.405       .  A
C2877      H2886   1.082       .  S
C2878      C2881   1.358       .  A
O2879      C2880   1.335       .  A
C2880      C2881   1.394       .  A
C2881      H2887   1.083       .  S
O2882      C2883   1.332       .  A
C2883      C2884   1.399       .  A
C2884      H2888   1.082       .  S
C2889      C2894   1.379       .  A
C2889      C2890   1.404       .  A
C2889      O2895   1.321       .  A
C2890      C2891   1.404       .  A
C2890      H2901   1.082       .  S
C2891      C2900   1.360       .  A
C2891      C2892   1.379       .  A
C2892      C2893   1.403       .  A
C2892      O2898   1.322       .  A
C2893      C2894   1.404       .  A
C2893      H2902   1.082       .  S
C2894      C2897   1.359       .  A
O2895      C2896   1.332       .  A
C2896      C2897   1.392       .  A
C2897      H2903   1.083       .  S
O2898      C2899   1.331       .  A
C2899      C2900   1.393       .  A
C2900      H2904   1.083       .  S
C2905      C2910   1.381       .  A
C2905      C2906   1.400       .  A
C2905      O2911   1.322       .  A
C2906      C2907   1.402       .  A
C2906      H2917   1.082       .  S
C2907      C2916   1.352       .  A
C2907      C2908   1.381       .  A
C2908      C2909   1.402       .  A
C2908      O2914   1.324       .  A
C2909      C2910   1.405       .  A
C2909      H2918   1.082       .  S
C2910      C2913   1.355       .  A
O2911      C2912   1.330       .  A
C2912      C2913   1.395       .  A
C2913      H2919   1.082       .  S
O2914      C2915   1.330       .  A
C2915      C2916   1.394       .  A
C2916      H2920   1.083       .  S
C2921      C2926   1.378       .  A
C2921      C2922   1.405       .  A
C2921      O2927   1.313       .  A
C2922      C2923   1.401       .  A
C2922      H2933   1.082       .  S
C2923      C2932   1.368       .  A
C2923      C2924   1.379       .  A
C2924      C2925   1.406       .  A
C2924      O2930   1.315       .  A
C2925      C2926   1.402       .  A
C2925      H2934   1.082       .  S
C2926      C2929   1.370       .  A
O2927      C2928   1.332       .  A
C2928      C2929   1.393       .  A
C2929      H2935   1.082       .  S
O2930      C2931   1.333       .  A
C2931      C2932   1.391       .  A
C2932      H2936   1.082       .  S
C2937      C2942   1.376       .  A
C2937      C2938   1.413       .  A
C2937      O2943   1.331       .  A
C2938      C2939   1.414       .  A
C2938      H2949   1.082       .  S
C2939      C2948   1.370       .  A
C2939      C2940   1.377       .  A
C2940      C2941   1.413       .  A
C2940      O2946   1.331       .  A
C2941      C2942   1.415       .  A
C2941      H2950   1.082       .  S
C2942      C2945   1.370       .  A
O2943      C2944   1.339       .  A
C2944      C2945   1.405       .  A
C2945      H2951   1.080       .  S
O2946      C2947   1.339       .  A
C2947      C2948   1.401       .  A
C2948      H2952   1.082       .  S
C2953      C2958   1.377       .  A
C2953      C2954   1.410       .  A
C2953      O2959   1.327       .  A
C2954      C2955   1.410       .  A
C2954      H2965   1.082       .  S
C2955      C2964   1.369       .  A
C2955      C2956   1.376       .  A
C2956      C2957   1.418       .  A
C2956      O2962   1.333       .  A
C2957      C2958   1.418       .  A
C2957      H2966   1.082       .  S
C2958      C2961   1.376       .  A
O2959      C2960   1.337       .  A
C2960      C2961   1.404       .  A
C2961      H2967   1.082       .  S
O2962      C2963   1.342       .  A
C2963      C2964   1.401       .  A
C2964      H2968   1.080       .  S
C2969      C2974   1.377       .  A
C2969      C2970   1.409       .  A
C2969      O2975   1.326       .  A
C2970      C2971   1.409       .  A
C2970      H2981   1.082       .  S
C2971      C2980   1.367       .  A
C2971      C2972   1.378       .  A
C2972      C2973   1.412       .  A
C2972      O2978   1.328       .  A
C2973      C2974   1.413       .  A
C2973      H2982   1.082       .  S
C2974      C2977   1.369       .  A
O2975      C2976   1.337       .  A
C2976      C2977   1.405       .  A
C2977      H2983   1.082       .  S
O2978      C2979   1.337       .  A
C2979      C2980   1.396       .  A
C2980      H2984   1.082       .  S
C2985      C2990   1.378       .  A
C2985      C2986   1.409       .  A
C2985      O2991   1.324       .  A
C2986      C2987   1.409       .  A
C2986      H2997   1.082       .  S
C2987      C2996   1.367       .  A
C2987      C2988   1.376       .  A
C2988      C2989   1.418       .  A
C2988      O2994   1.332       .  A
C2989      C2990   1.417       .  A
C2989      H2998   1.082       .  S
C2990      C2993   1.378       .  A
O2991      C2992   1.336       .  A
C2992      C2993   1.401       .  A
C2993      H2999   1.082       .  S
O2994      C2995   1.342       .  A
C2995      C2996   1.403       .  A
C2996      H3000   1.081       .  S
C3001      C3006   1.378       .  A
C3001      C3002   1.409       .  A
C3001      O3007   1.318       .  A
C3002      C3003   1.406       .  A
C3002      H3013   1.082       .  S
C3003      C3012   1.372       .  A
C3003      C3004   1.379       .  A
C3004      C3005   1.406   1_556  A
C3004      O3010   1.315       .  A
C3005      C3006   1.403   1_554  A
C3005      H3014   1.082       .  S
C3006      C3009   1.370   1_556  A
O3007      C3008   1.335       .  A
C3008      C3009   1.392   1_556  A
C3009      H3015   1.082       .  S
O3010      C3011   1.332       .  A
C3011      C3012   1.393       .  A
C3012      H3016   1.082       .  S
C3017      C3022   1.378       .  A
C3017      C3018   1.410       .  A
C3017      O3023   1.317       .  A
C3018      C3019   1.405       .  A
C3018      H3029   1.082       .  S
C3019      C3028   1.374       .  A
C3019      C3020   1.378       .  A
C3020      C3021   1.406       .  A
C3020      O3026   1.314       .  A
C3021      C3022   1.402       .  A
C3021      H3030   1.082   1_556  S
C3022      C3025   1.371       .  A
O3023      C3024   1.336       .  A
C3024      C3025   1.391       .  A
C3025      H3031   1.082   1_556  S
O3026      C3027   1.333       .  A
C3027      C3028   1.395       .  A
C3028      H3032   1.082       .  S
C3033      C3038   1.378   1_556  A
C3033      C3034   1.412       .  A
C3033      O3039   1.319       .  A
C3034      C3035   1.408       .  A
C3034      H3045   1.082       .  S
C3035      C3044   1.376       .  A
C3035      C3036   1.378       .  A
C3036      C3037   1.408   1_556  A
C3036      O3042   1.317   1_556  A
C3037      C3038   1.403       .  A
C3037      H3046   1.082       .  S
C3038      C3041   1.372       .  A
O3039      C3040   1.337       .  A
C3040      C3041   1.392   1_556  A
C3041      H3047   1.082       .  S
O3042      C3043   1.334   1_554  A
C3043      C3044   1.396       .  A
C3044      H3048   1.082       .  S
C3049      C3054   1.379       .  A
C3049      C3050   1.407       .  A
C3049      O3055   1.327       .  A
C3050      C3051   1.408       .  A
C3050      H3061   1.082       .  S
C3051      C3060   1.362       .  A
C3051      C3052   1.379       .  A
C3052      C3053   1.408       .  A
C3052      O3058   1.327       .  A
C3053      C3054   1.409       .  A
C3053      H3062   1.082       .  S
C3054      C3057   1.362       .  A
O3055      C3056   1.334       .  A
C3056      C3057   1.395       .  A
C3057      H3063   1.083       .  S
O3058      C3059   1.335       .  A
C3059      C3060   1.396       .  A
C3060      H3064   1.083       .  S
C3065      C3070   1.380   1_556  A
C3065      C3066   1.404       .  A
C3065      O3071   1.321   1_556  A
C3066      C3067   1.404       .  A
C3066      H3077   1.082       .  S
C3067      C3076   1.360       .  A
C3067      C3068   1.380       .  A
C3068      C3069   1.401       .  A
C3068      O3074   1.319       .  A
C3069      C3070   1.402   1_556  A
C3069      H3078   1.082       .  S
C3070      C3073   1.356       .  A
O3071      C3072   1.331       .  A
C3072      C3073   1.391       .  A
C3073      H3079   1.083       .  S
O3074      C3075   1.330       .  A
C3075      C3076   1.393       .  A
C3076      H3080   1.083       .  S
C3081      C3086   1.378   1_554  A
C3081      C3082   1.408       .  A
C3081      O3087   1.317       .  A
C3082      C3083   1.404       .  A
C3082      H3093   1.082       .  S
C3083      C3092   1.373       .  A
C3083      C3084   1.378   1_554  A
C3084      C3085   1.410       .  A
C3084      O3090   1.317       .  A
C3085      C3086   1.406       .  A
C3085      H3094   1.082       .  S
C3086      C3089   1.374       .  A
O3087      C3088   1.334   1_554  A
C3088      C3089   1.394       .  A
C3089      H3095   1.082       .  S
O3090      C3091   1.335   1_556  A
C3091      C3092   1.392       .  A
C3092      H3096   1.082       .  S
C3097      C3102   1.376       .  A
C3097      C3098   1.414       .  A
C3097      O3103   1.330       .  A
C3098      C3099   1.414       .  A
C3098      H3109   1.082       .  S
C3099      C3108   1.371       .  A
C3099      C3100   1.377       .  A
C3100      C3101   1.414       .  A
C3100      O3106   1.331       .  A
C3101      C3102   1.415       .  A
C3101      H3110   1.082       .  S
C3102      C3105   1.373       .  A
O3103      C3104   1.339       .  A
C3104      C3105   1.403       .  A
C3105      H3111   1.080       .  S
O3106      C3107   1.340       .  A
C3107      C3108   1.402       .  A
C3108      H3112   1.082       .  S
C3113      C3118   1.379       .  A
C3113      C3114   1.411       .  A
C3113      O3119   1.319       .  A
C3114      C3115   1.406       .  A
C3114      H3125   1.082       .  S
C3115      C3124   1.374       .  A
C3115      C3116   1.378       .  A
C3116      C3117   1.406       .  A
C3116      O3122   1.314       .  A
C3117      C3118   1.402       .  A
C3117      H3126   1.082       .  S
C3118      C3121   1.370       .  A
O3119      C3120   1.336       .  A
C3120      C3121   1.391       .  A
C3121      H3127   1.082       .  S
O3122      C3123   1.333       .  A
C3123      C3124   1.394       .  A
C3124      H3128   1.082       .  S
C3129      C3134   1.380       .  A
C3129      C3130   1.407       .  A
C3129      O3135   1.313       .  A
C3130      C3131   1.402       .  A
C3130      H3141   1.082       .  S
C3131      C3140   1.371       .  A
C3131      C3132   1.379       .  A
C3132      C3133   1.401       .  A
C3132      O3138   1.309       .  A
C3133      C3134   1.396       .  A
C3133      H3142   1.082       .  S
C3134      C3137   1.365       .  A
O3135      C3136   1.333       .  A
C3136      C3137   1.388       .  A
C3137      H3143   1.082       .  S
O3138      C3139   1.330       .  A
C3139      C3140   1.393       .  A
C3140      H3144   1.082       .  S
C3145      C3150   1.378       .  A
C3145      C3146   1.410       .  A
C3145      O3151   1.326       .  A
C3146      C3147   1.410       .  A
C3146      H3157   1.082       .  S
C3147      C3156   1.368       .  A
C3147      C3148   1.377       .  A
C3148      C3149   1.411       .  A
C3148      O3154   1.326       .  A
C3149      C3150   1.410       .  A
C3149      H3158   1.082       .  S
C3150      C3153   1.370       .  A
O3151      C3152   1.337       .  A
C3152      C3153   1.397       .  A
C3153      H3159   1.082       .  S
O3154      C3155   1.339       .  A
C3155      C3156   1.402       .  A
C3156      H3160   1.082       .  S
C3161      C3166   1.380       .  A
C3161      C3162   1.407       .  A
C3161      O3167   1.324       .  A
C3162      C3163   1.408       .  A
C3162      H3173   1.082       .  S
C3163      C3172   1.362       .  A
C3163      C3164   1.380       .  A
C3164      C3165   1.399       .  A
C3164      O3170   1.319       .  A
C3165      C3166   1.400       .  A
C3165      H3174   1.082       .  S
C3166      C3169   1.353       .  A
O3167      C3168   1.333       .  A
C3168      C3169   1.389       .  A
C3169      H3175   1.083       .  S
O3170      C3171   1.329       .  A
C3171      C3172   1.396       .  A
C3172      H3176   1.083       .  S
C3177      C3182   1.378       .  A
C3177      C3178   1.404       .  A
C3177      O3183   1.314       .  A
C3178      C3179   1.401       .  A
C3178      H3189   1.082       .  S
C3179      C3188   1.366       .  A
C3179      C3180   1.378       .  A
C3180      C3181   1.411       .  A
C3180      O3186   1.321       .  A
C3181      C3182   1.408       .  A
C3181      H3190   1.082       .  S
C3182      C3185   1.374       .  A
O3183      C3184   1.332       .  A
C3184      C3185   1.395       .  A
C3185      H3191   1.082       .  S
O3186      C3187   1.336       .  A
C3187      C3188   1.392       .  A
C3188      H3192   1.082       .  S
C3193      C3198   1.379       .  A
C3193      C3194   1.403       .  A
C3193      O3199   1.311       .  A
C3194      C3195   1.399       .  A
C3194      H3205   1.082       .  S
C3195      C3204   1.366       .  A
C3195      C3196   1.379       .  A
C3196      C3197   1.405       .  A
C3196      O3202   1.314       .  A
C3197      C3198   1.401       .  A
C3197      H3206   1.082       .  S
C3198      C3201   1.369       .  A
O3199      C3200   1.331       .  A
C3200      C3201   1.391       .  A
C3201      H3207   1.082       .  S
O3202      C3203   1.332       .  A
C3203      C3204   1.390       .  A
C3204      H3208   1.082       .  S
C3209      C3214   1.378       .  A
C3209      C3210   1.406       .  A
C3209      O3215   1.315       .  A
C3210      C3211   1.403       .  A
C3210      H3221   1.082       .  S
C3211      C3220   1.370       .  A
C3211      C3212   1.379       .  A
C3212      C3213   1.407       .  A
C3212      O3218   1.316       .  A
C3213      C3214   1.403       .  A
C3213      H3222   1.082       .  S
C3214      C3217   1.370       .  A
O3215      C3216   1.333       .  A
C3216      C3217   1.392       .  A
C3217      H3223   1.082       .  S
O3218      C3219   1.334       .  A
C3219      C3220   1.394       .  A
C3220      H3224   1.082       .  S
C3225      C3230   1.379       .  A
C3225      C3226   1.402       .  A
C3225      O3231   1.309       .  A
C3226      C3227   1.397       .  A
C3226      H3237   1.082       .  S
C3227      C3236   1.367       .  A
C3227      C3228   1.379       .  A
C3228      C3229   1.408       .  A
C3228      O3234   1.314       .  A
C3229      C3230   1.403       .  A
C3229      H3238   1.082       .  S
C3230      C3233   1.371       .  A
O3231      C3232   1.329       .  A
C3232      C3233   1.393       .  A
C3233      H3239   1.082       .  S
O3234      C3235   1.334       .  A
C3235      C3236   1.389       .  A
C3236      H3240   1.082       .  S
C3241      C3246   1.380       .  A
C3241      C3242   1.407       .  A
C3241      O3247   1.328       .  A
C3242      C3243   1.409       .  A
C3242      H3253   1.082       .  S
C3243      C3252   1.361       .  A
C3243      C3244   1.380       .  A
C3244      C3245   1.404       .  A
C3244      O3250   1.325       .  A
C3245      C3246   1.406       .  A
C3245      H3254   1.082       .  S
C3246      C3249   1.357       .  A
O3247      C3248   1.334       .  A
C3248      C3249   1.394       .  A
C3249      H3255   1.082       .  S
O3250      C3251   1.332       .  A
C3251      C3252   1.397       .  A
C3252      H3256   1.083       .  S
C3257      C3262   1.376       .  A
C3257      C3258   1.416       .  A
C3257      O3263   1.331       .  A
C3258      C3259   1.416       .  A
C3258      H3269   1.082       .  S
C3259      C3268   1.375       .  A
C3259      C3260   1.377       .  A
C3260      C3261   1.414       .  A
C3260      O3266   1.329       .  A
C3261      C3262   1.414       .  A
C3261      H3270   1.082       .  S
C3262      C3265   1.374       .  A
O3263      C3264   1.340       .  A
C3264      C3265   1.403       .  A
C3265      H3271   1.081       .  S
O3266      C3267   1.339       .  A
C3267      C3268   1.402       .  A
C3268      H3272   1.082       .  S
C3273      C3278   1.379       .  A
C3273      C3274   1.403       .  A
C3273      O3279   1.313       .  A
C3274      C3275   1.400       .  A
C3274      H3285   1.082       .  S
C3275      C3284   1.365       .  A
C3275      C3276   1.379       .  A
C3276      C3277   1.411       .  A
C3276      O3282   1.320       .  A
C3277      C3278   1.407       .  A
C3277      H3286   1.082       .  S
C3278      C3281   1.374       .  A
O3279      C3280   1.331       .  A
C3280      C3281   1.394       .  A
C3281      H3287   1.082       .  S
O3282      C3283   1.335       .  A
C3283      C3284   1.391       .  A
C3284      H3288   1.082       .  S
C3289      C3294   1.378       .  A
C3289      C3290   1.406       .  A
C3289      O3295   1.317       .  A
C3290      C3291   1.404       .  A
C3290      H3301   1.082       .  S
C3291      C3300   1.367       .  A
C3291      C3292   1.378       .  A
C3292      C3293   1.408       .  A
C3292      O3298   1.319       .  A
C3293      C3294   1.406       .  A
C3293      H3302   1.082       .  S
C3294      C3297   1.370       .  A
O3295      C3296   1.333       .  A
C3296      C3297   1.394       .  A
C3297      H3303   1.082       .  S
O3298      C3299   1.333       .  A
C3299      C3300   1.392       .  A
C3300      H3304   1.082       .  S
C3305      C3310   1.378   1_455  A
C3305      C3306   1.408       .  A
C3305      O3311   1.327       .  A
C3306      C3307   1.410   1_545  A
C3306      H3317   1.082       .  S
C3307      C3316   1.363       .  A
C3307      C3308   1.380   1_455  A
C3308      C3309   1.400   1_565  A
C3308      O3314   1.321       .  A
C3309      C3310   1.402       .  A
C3309      H3318   1.082       .  S
C3310      C3313   1.353       .  A
O3311      C3312   1.335       .  A
C3312      C3313   1.392   1_455  A
C3313      H3319   1.083       .  S
O3314      C3315   1.330   1_655  A
C3315      C3316   1.399       .  A
C3316      H3320   1.083       .  S
C3321      C3326   1.378       .  A
C3321      C3322   1.411       .  A
C3321      O3327   1.319       .  A
C3322      C3323   1.407       .  A
C3322      H3333   1.082       .  S
C3323      C3332   1.376       .  A
C3323      C3324   1.378       .  A
C3324      C3325   1.406       .  A
C3324      O3330   1.313       .  A
C3325      C3326   1.402       .  A
C3325      H3334   1.082   1_545  S
C3326      C3329   1.371   1_545  A
O3327      C3328   1.336       .  A
C3328      C3329   1.392   1_545  A
C3329      H3335   1.082       .  S
O3330      C3331   1.333       .  A
C3331      C3332   1.395       .  A
C3332      H3336   1.082       .  S
C3337      C3342   1.379       .  A
C3337      C3338   1.405       .  A
C3337      O3343   1.311       .  A
C3338      C3339   1.400       .  A
C3338      H3349   1.082   1_455  S
C3339      C3348   1.369   1_455  A
C3339      C3340   1.379       .  A
C3340      C3341   1.406       .  A
C3340      O3346   1.313       .  A
C3341      C3342   1.401       .  A
C3341      H3350   1.082       .  S
C3342      C3345   1.371       .  A
O3343      C3344   1.332       .  A
C3344      C3345   1.391       .  A
C3345      H3351   1.082       .  S
O3346      C3347   1.333       .  A
C3347      C3348   1.391   1_455  A
C3348      H3352   1.082       .  S
C3353      C3358   1.376       .  A
C3353      C3354   1.411       .  A
C3353      O3359   1.328       .  A
C3354      C3355   1.412       .  A
C3354      H3365   1.082       .  S
C3355      C3364   1.371       .  A
C3355      C3356   1.378       .  A
C3356      C3357   1.411       .  A
C3356      O3362   1.328       .  A
C3357      C3358   1.411       .  A
C3357      H3366   1.082       .  S
C3358      C3361   1.366       .  A
O3359      C3360   1.338       .  A
C3360      C3361   1.405       .  A
C3361      H3367   1.082       .  S
O3362      C3363   1.337       .  A
C3363      C3364   1.398       .  A
C3364      H3368   1.082       .  S
C3369      C3374   1.379       .  A
C3369      C3370   1.401       .  A
C3369      O3375   1.311       .  A
C3370      C3371   1.398       .  A
C3370      H3381   1.082       .  S
C3371      C3380   1.362       .  A
C3371      C3372   1.379       .  A
C3372      C3373   1.408       .  A
C3372      O3378   1.316       .  A
C3373      C3374   1.404       .  A
C3373      H3382   1.082       .  S
C3374      C3377   1.370       .  A
O3375      C3376   1.329       .  A
C3376      C3377   1.393       .  A
C3377      H3383   1.082       .  S
O3378      C3379   1.334       .  A
C3379      C3380   1.390       .  A
C3380      H3384   1.083       .  S
C3385      C3390   1.379       .  A
C3385      C3386   1.403       .  A
C3385      O3391   1.323       .  A
C3386      C3387   1.405       .  A
C3386      H3397   1.082       .  S
C3387      C3396   1.358       .  A
C3387      C3388   1.379       .  A
C3388      C3389   1.408       .  A
C3388      O3394   1.327       .  A
C3389      C3390   1.410       .  A
C3389      H3398   1.082       .  S
C3390      C3393   1.364       .  A
O3391      C3392   1.332       .  A
C3392      C3393   1.396       .  A
C3393      H3399   1.083       .  S
O3394      C3395   1.335       .  A
C3395      C3396   1.395       .  A
C3396      H3400   1.082       .  S
C3401      C3406   1.380       .  A
C3401      C3402   1.404       .  A
C3401      O3407   1.325       .  A
C3402      C3403   1.407       .  A
C3402      H3413   1.082       .  S
C3403      C3412   1.358       .  A
C3403      C3404   1.380       .  A
C3404      C3405   1.403       .  A
C3404      O3410   1.325       .  A
C3405      C3406   1.406       .  A
C3405      H3414   1.082       .  S
C3406      C3409   1.357       .  A
O3407      C3408   1.332       .  A
C3408      C3409   1.394       .  A
C3409      H3415   1.083       .  S
O3410      C3411   1.331       .  A
C3411      C3412   1.397       .  A
C3412      H3416   1.083       .  S
C3417      C3422   1.377       .  A
C3417      C3418   1.411       .  A
C3417      O3423   1.325       .  A
C3418      C3419   1.410       .  A
C3418      H3429   1.082       .  S
C3419      C3428   1.370       .  A
C3419      C3420   1.376       .  A
C3420      C3421   1.417       .  A
C3420      O3426   1.329       .  A
C3421      C3422   1.416       .  A
C3421      H3430   1.082       .  S
C3422      C3425   1.378       .  A
O3423      C3424   1.337       .  A
C3424      C3425   1.401       .  A
C3425      H3431   1.082       .  S
O3426      C3427   1.341       .  A
C3427      C3428   1.403       .  A
C3428      H3432   1.081       .  S
C3433      C3438   1.380   1_546  A
C3433      C3434   1.404   1_545  A
C3433      O3439   1.314       .  A
C3434      C3435   1.401       .  A
C3434      H3445   1.082   1_565  S
C3435      C3444   1.366       .  A
C3435      C3436   1.379       .  A
C3436      C3437   1.402   1_556  A
C3436      O3442   1.313       .  A
C3437      C3438   1.399       .  A
C3437      H3446   1.082       .  S
C3438      C3441   1.363   1_565  A
O3439      C3440   1.330       .  A
C3440      C3441   1.388   1_556  A
C3441      H3447   1.082   1_545  S
O3442      C3443   1.330       .  A
C3443      C3444   1.392       .  A
C3444      H3448   1.082       .  S
C3449      C3454   1.379   1_545  A
C3449      C3450   1.407       .  A
C3449      O3455   1.318       .  A
C3450      C3451   1.405       .  A
C3450      H3461   1.082       .  S
C3451      C3460   1.368       .  A
C3451      C3452   1.378   1_545  A
C3452      C3453   1.408       .  A
C3452      O3458   1.319       .  A
C3453      C3454   1.405       .  A
C3453      H3462   1.082       .  S
C3454      C3457   1.369       .  A
O3455      C3456   1.333   1_545  A
C3456      C3457   1.393       .  A
C3457      H3463   1.082       .  S
O3458      C3459   1.334   1_565  A
C3459      C3460   1.392       .  A
C3460      H3464   1.082       .  S
C3465      C3470   1.379   1_554  A
C3465      C3466   1.411       .  A
C3465      O3471   1.330       .  A
C3466      C3467   1.412       .  A
C3466      H3477   1.082       .  S
C3467      C3476   1.366       .  A
C3467      C3468   1.380   1_554  A
C3468      C3469   1.403       .  A
C3468      O3474   1.323       .  A
C3469      C3470   1.404       .  A
C3469      H3478   1.082       .  S
C3470      C3473   1.357       .  A
O3471      C3472   1.336       .  A
C3472      C3473   1.394   1_554  A
C3473      H3479   1.083       .  S
O3474      C3475   1.331       .  A
C3475      C3476   1.399   1_556  A
C3476      H3480   1.083       .  S
C3481      C3486   1.377       .  A
C3481      C3482   1.412       .  A
C3481      O3487   1.329       .  A
C3482      C3483   1.413       .  A
C3482      H3493   1.082       .  S
C3483      C3492   1.369       .  A
C3483      C3484   1.376       .  A
C3484      C3485   1.416       .  A
C3484      O3490   1.333       .  A
C3485      C3486   1.416       .  A
C3485      H3494   1.082       .  S
C3486      C3489   1.374       .  A
O3487      C3488   1.339       .  A
C3488      C3489   1.402       .  A
C3489      H3495   1.082       .  S
O3490      C3491   1.340       .  A
C3491      C3492   1.404       .  A
C3492      H3496   1.080       .  S
