geometry optimzed in LAMMPS
_audit_creation_date              2020-11-30 
_audit_creation_method            'lammps2cif' 
_symmetry_space_group_name_H-M    'P1' 
_symmetry_Int_Tables_number       1 
_symmetry_cell_setting            triclinic 
loop_ 
_symmetry_equiv_pos_as_xyz 
  x,y,z 
_cell_length_a                    42.2376297 
_cell_length_b                    42.239742764207 
_cell_length_c                    38.576333796349836 
_cell_angle_alpha                 90.0137944483263 
_cell_angle_beta                  89.94916072184267 
_cell_angle_gamma                 89.77727757323309 
loop_ 
_atom_site_label 
_atom_site_type_symbol 
_atom_site_fract_x 
_atom_site_fract_y 
_atom_site_fract_z 
_atom_site_charge 
C1          C  0.49503615  0.39970096  0.42390865     0.42300
N2          N  0.01024314  0.43075450  0.46466680     0.01200
C3          C  0.41593218  0.02996372  0.06406489    -0.06700
H4          H  0.41569901  0.05450210  0.43090364     0.06700
C5          C  0.03019715  0.08093365  0.43891412    -0.07000
Co6        Co  0.45530394  0.45999815  0.00163084     0.74200
N7          N  0.43528447  0.01806940  0.46350428    -0.26200
Co8        Co  0.46100452  0.04156396  0.50172272     0.74100
C9          C  0.50198299  0.09530929  0.42341927     0.42400
N10         N  0.06555785  0.00847897  0.46378810     0.00800
N11         N  0.48787335  0.06425951  0.46437966     0.00900
N12         N  0.41283304  0.47655080  0.06344078    -0.47100
H13         H  0.44258589  0.41277296  0.43327921     0.06700
N14         N  0.43288083  0.48696367  0.46349438     0.01200
N15         N  0.48777720  0.06383710  0.03992522     0.00900
C16         C  0.00201894  0.09264351  0.08310192     0.42600
N17         N  0.06348723  0.47727411  0.46410746    -0.25700
C18         C  0.46660754  0.41695593  0.06556805    -0.06600
N19         N  0.02075654  0.41066866  0.44087513    -0.46800
N20         N  0.47674045  0.08214220  0.06507989    -0.47000
C21         C  0.99402479  0.40421816  0.08421402     0.42300
N22         N  0.43238074  0.48705970  0.03923885     0.01200
N23         N  0.06347191  0.47756196  0.03943133    -0.25700
N24         N  0.47914536  0.43357975  0.46439951    -0.26200
N25         N  0.06578543  0.00870479  0.03946227     0.00800
H26         H  0.08503104  0.44091242  0.07040985     0.06700
H27         H  0.05497613  0.08349835  0.07129252     0.06800
N28         N  0.43451760  0.01816797  0.03902035    -0.26200
N29         N  0.01904406  0.06225249  0.46422033    -0.25800
N30         N  0.00986956  0.43198261  0.04066303     0.01200
C31         C  0.40473531  0.50184957  0.41991675     0.42600
C32         C  0.08140002  0.46559871  0.43830201    -0.07100
N33         N  0.01897061  0.06192353  0.03979632    -0.25800
H34         H  0.05491984  0.08507646  0.43328250     0.06700
N35         N  0.41454823  0.47635730  0.43822981    -0.47100
H36         H  0.08485151  0.44076132  0.43255802     0.06700
C37         C  0.09642198  0.99343198  0.08046078     0.42400
C38         C  0.46743064  0.41538089  0.43912773    -0.06600
Co39       Co  0.03721362  0.45381955  0.00222259     0.73800
N40         N  0.08436652  0.01904167  0.43887308    -0.46800
C41         C  0.40139105  0.00227542  0.08013060     0.42700
N42         N  0.02000600  0.41415779  0.06672555    -0.46800
Co43       Co  0.04291367  0.03581304  0.50176791     0.73900
C44         C  0.03019186  0.07961629  0.06590935    -0.07100
C45         C  0.41838484  0.02965443  0.43695788    -0.06700
N46         N  0.47873744  0.43411285  0.03968106    -0.26200
N47         N  0.47672744  0.08370463  0.44044522    -0.46900
H48         H  0.41202217  0.05485072  0.06915746     0.06700
C49         C  0.08174726  0.46576621  0.06468788    -0.07100
Cl50       Cl  0.99914374  0.99780211  0.00178642    -0.50100
C51         C  0.09497579  0.49340436  0.42133252     0.42500
H52         H  0.44160210  0.41344794  0.06968998     0.06700
N53         N  0.08530887  0.01923186  0.06367687    -0.46800
N54         N  0.49984650  0.29629060  0.25308496    -0.36800
N55         N  0.49882814  0.24673801  0.30584795    -0.57300
N56         N  0.49809123  0.19877425  0.25144537    -0.36700
N57         N  0.49444767  0.24838795  0.19864569    -0.57300
C58         C  0.49548921  0.31392363  0.28204173     0.26800
C59         C  0.49348215  0.31503593  0.22548003     0.26800
C60         C  0.49279719  0.18057585  0.27970648     0.26800
C61         C  0.49060164  0.18132853  0.22326209     0.26800
C62         C  0.50498695  0.27192223  0.32630213     0.35400
C63         C  0.50433828  0.22074152  0.32532467     0.35500
C64         C  0.49853280  0.27430424  0.17849490     0.35400
C65         C  0.49769679  0.22282187  0.17773019     0.35500
C66         C  0.48659921  0.34434875  0.27279030    -0.22000
C67         C  0.48563194  0.34517604  0.23722540    -0.23800
C68         C  0.48200948  0.15109197  0.26937395    -0.22000
C69         C  0.48063766  0.15155304  0.23375011    -0.22000
C70         C  0.51411843  0.26192035  0.35901962    -0.23100
C71         C  0.51380710  0.22947762  0.35837965    -0.23100
C72         C  0.50361903  0.26507879  0.14442165    -0.23100
C73         C  0.50340891  0.23255592  0.14401216    -0.23100
C74         C  0.50078840  0.30386683  0.31655702    -0.18400
C75         C  0.49631045  0.30618931  0.19005306    -0.18400
C76         C  0.49422013  0.19083854  0.18827679    -0.18400
C77         C  0.49916389  0.18924752  0.31441813    -0.18400
H78         H  0.48181439  0.36413836  0.28986404     0.14500
H79         H  0.48014825  0.36597982  0.22204733     0.14500
H80         H  0.47605182  0.13119454  0.28577721     0.14500
H81         H  0.47332107  0.13207790  0.21740673     0.14500
H82         H  0.52029450  0.27648827  0.38107017     0.12800
H83         H  0.51969182  0.21410027  0.37988832     0.12800
H84         H  0.50705890  0.28013332  0.12206346     0.12800
H85         H  0.50673980  0.21779830  0.12135580     0.12800
H86         H  0.50835804  0.27334252  0.25214702     0.26000
H87         H  0.50816540  0.22104463  0.25127300     0.26000
N88         N  0.20007957  0.50079390  0.25202096    -0.36800
N89         N  0.24823275  0.50134720  0.19789210    -0.57300
N90         N  0.29765144  0.50456762  0.25074113    -0.36700
N91         N  0.24978937  0.49924407  0.30488610    -0.57300
C92         C  0.18224411  0.49404819  0.22385144     0.26800
C93         C  0.18302938  0.49278252  0.28036042     0.26800
C94         C  0.31534328  0.49948223  0.22203077     0.26800
C95         C  0.31621308  0.49841297  0.27850452     0.26800
C96         C  0.22219605  0.50599031  0.17817621     0.35400
C97         C  0.27340438  0.50785494  0.17749357     0.35500
C98         C  0.22413669  0.50246237  0.32561313     0.35400
C99         C  0.27545907  0.50478441  0.32491480     0.35500
C100        C  0.15334808  0.48191666  0.23443317    -0.22000
C101        C  0.15381152  0.48118548  0.27008239    -0.22000
C102        C  0.34565609  0.49036009  0.23161511    -0.22000
C103        C  0.34626808  0.48984243  0.26722557    -0.22000
C104        C  0.23091492  0.51528915  0.14504743    -0.23100
C105        C  0.26336128  0.51636304  0.14459252    -0.23100
C106        C  0.23355759  0.50972995  0.35907515    -0.23100
C107        C  0.26605951  0.51109608  0.35866456    -0.23100
C108        C  0.19076430  0.49994950  0.18894131    -0.18400
C109        C  0.19246981  0.49695938  0.31528592    -0.18400
C110        C  0.30729651  0.50213484  0.31367337    -0.18400
C111        C  0.30540683  0.50441551  0.18746210    -0.18400
H112        H  0.13386085  0.47451798  0.21817155     0.14500
H113        H  0.13475514  0.47305216  0.28656726     0.14500
H114        H  0.36543325  0.48498799  0.21471825     0.14500
H115        H  0.36671340  0.48407352  0.28289674     0.14500
H116        H  0.21552986  0.52055491  0.12336447     0.12800
H117        H  0.27790587  0.52258920  0.12252586     0.12800
H118        H  0.21859543  0.51325876  0.38154772     0.12800
H119        H  0.28103324  0.51584348  0.38079512     0.12800
H120        H  0.22192755  0.51187889  0.25200095     0.26000
H121        H  0.27477634  0.51349417  0.25135064     0.26000
C122        C  0.12070836  0.49433200  0.10791563    -0.06300
C123        C  0.11836825  0.01805464  0.13322628    -0.17400
C124        C  0.14072862  0.02055842  0.15980381     0.10900
C125        C  0.16576396  0.49832035  0.16176846    -0.06200
C126        C  0.16786641  0.47432495  0.13668371    -0.17400
C127        C  0.14620280  0.47256144  0.10938057     0.11000
S128        S  0.13609851  0.05284391  0.19000477    -0.32400
S129        S  0.15404466  0.44362885  0.07606613    -0.32400
H130        H  0.14552305  0.46368018  0.04845414     0.29000
H131        H  0.16855020  0.05715303  0.19636401     0.29000
H132        H  0.09905236  0.03496418  0.13212357     0.19600
H133        H  0.18728442  0.45749751  0.13775040     0.19600
C134        C  0.16749086  0.49517294  0.34247320    -0.06300
C135        C  0.14613884  0.02048981  0.34552808    -0.17400
C136        C  0.12168877  0.02003707  0.37002373     0.10900
C137        C  0.11894146  0.49413912  0.39311355    -0.06200
C138        C  0.14028108  0.46865926  0.38979347    -0.17400
C139        C  0.16416609  0.46870685  0.36452256     0.11000
S140        S  0.09399322  0.05254920  0.36912593    -0.32400
S141        S  0.18960395  0.43437771  0.36175038    -0.32400
H142        H  0.19572204  0.43650945  0.32601349     0.29000
H143        H  0.06713830  0.03361305  0.37476866     0.29000
H144        H  0.14819977  0.04053150  0.32813514     0.19600
H145        H  0.13853248  0.44856700  0.40711650     0.19600
C146        C  0.37652044  0.50215587  0.10730890    -0.06300
C147        C  0.37402856  0.02856445  0.12937592    -0.17400
C148        C  0.35075863  0.03027992  0.15513983     0.10900
C149        C  0.32989867  0.50462838  0.15982306    -0.06200
C150        C  0.33241868  0.47814040  0.13814775    -0.17400
C151        C  0.35498539  0.47681186  0.11166258     0.11000
S152        S  0.34895162  0.06578301  0.18110844    -0.32400
S153        S  0.35370610  0.44281223  0.08353154    -0.32400
H154        H  0.35411083  0.46100954  0.05296767     0.29000
H155        H  0.31630979  0.06464626  0.18804851     0.29000
H156        H  0.39024604  0.04819269  0.12656235     0.19600
H157        H  0.31620087  0.45855452  0.14154931     0.19600
C158        C  0.33289967  0.50260591  0.34015959    -0.06300
C159        C  0.34671081  0.47387280  0.35037885    -0.17400
C160        C  0.37143199  0.47298790  0.37453295     0.10900
C161        C  0.38129588  0.50132883  0.39101221    -0.06200
C162        C  0.36744113  0.03009730  0.38034324    -0.17400
C163        C  0.34409466  0.03109737  0.35463781     0.11000
S164        S  0.39016484  0.43513961  0.38148909    -0.32400
S165        S  0.32926493  0.06946742  0.34182682    -0.32400
H166        H  0.32192491  0.06137164  0.30744021     0.29000
H167        H  0.42106499  0.44733773  0.37909131     0.29000
H168        H  0.33880835  0.45202451  0.33851373     0.19600
H169        H  0.37471552  0.05220700  0.39194325     0.19600
C170        C  0.49997910  0.11647548  0.11141914    -0.06300
C171        C  0.47368659  0.13705475  0.11202071    -0.17400
C172        C  0.47070061  0.16088859  0.13709184     0.10900
C173        C  0.49518179  0.16537686  0.16147680    -0.06200
C174        C  0.02112667  0.14452912  0.16139279    -0.17400
C175        C  0.02332097  0.11966421  0.13750116     0.11000
S176        S  0.43502154  0.18450364  0.13671434    -0.32400
S177        S  0.05510057  0.09170542  0.14377628    -0.32400
H178        H  0.03684981  0.06501815  0.13524799     0.29000
H179        H  0.43451452  0.19106867  0.17242849     0.29000
H180        H  0.45516914  0.13458991  0.09279867     0.19600
H181        H  0.03941987  0.14714519  0.18086758     0.19600
C182        C  0.50053429  0.11945920  0.39571415    -0.06300
C183        C  0.02468128  0.11978806  0.37071560    -0.17400
C184        C  0.02480353  0.14202919  0.34389117     0.10900
C185        C  0.49973792  0.16410306  0.34130919    -0.06200
C186        C  0.47526542  0.16350359  0.36584607    -0.17400
C187        C  0.47569246  0.14200243  0.39335312     0.11000
S188        S  0.05773922  0.14108065  0.31410344    -0.32400
S189        S  0.44501296  0.14625545  0.42554799    -0.32400
H190        H  0.46589342  0.14351500  0.45381277     0.29000
H191        H  0.05800067  0.17365540  0.30675829     0.29000
H192        H  0.04378189  0.10270013  0.37214122     0.19600
H193        H  0.45627286  0.18077649  0.36421356     0.19600
C194        C  0.49654750  0.33202300  0.16360927    -0.06300
C195        C  0.46852137  0.34898638  0.15744049    -0.17400
C196        C  0.46783500  0.37471803  0.13461462     0.10900
C197        C  0.49461588  0.38123893  0.11359337    -0.06200
C198        C  0.02278155  0.36432934  0.12006520    -0.17400
C199        C  0.02434128  0.34083784  0.14568581     0.11000
S200        S  0.43347338  0.40002081  0.13715878    -0.32400
S201        S  0.06246170  0.32305816  0.15422741    -0.32400
H202        H  0.05680686  0.31582932  0.18924789     0.29000
H203        H  0.45077991  0.42826265  0.13360916     0.29000
H204        H  0.44746271  0.34332288  0.17224278     0.19600
H205        H  0.04395075  0.36959052  0.10530870     0.19600
C206        C  0.49609449  0.37439045  0.39727238    -0.06300
C207        C  0.02294307  0.37247538  0.37580216    -0.17400
C208        C  0.02553611  0.34934060  0.34993501     0.10900
C209        C  0.50030968  0.32809683  0.34452825    -0.06200
C210        C  0.47367430  0.32966538  0.36610465    -0.17400
C211        C  0.47158499  0.35190315  0.39285101     0.11000
S212        S  0.06158448  0.34814027  0.32484977    -0.32400
S213        S  0.43820135  0.34829578  0.42164319    -0.32400
H214        H  0.45620168  0.35287995  0.45189926     0.29000
H215        H  0.06077551  0.31564139  0.31712360     0.29000
H216        H  0.04216191  0.38911220  0.37922909     0.19600
H217        H  0.45463673  0.31284053  0.36251946     0.19600
C218        C  0.49503618  0.39970123  0.92390858     0.42300
N219        N  0.01024325  0.43075472  0.96466681     0.01200
C220        C  0.41593204  0.02996366  0.56406517    -0.06700
H221        H  0.41569931  0.05450170  0.93090360     0.06700
C222        C  0.03019743  0.08093365  0.93891414    -0.07000
Co223      Co  0.45530384  0.45999797  0.50163083     0.74200
N224        N  0.43528485  0.01806902  0.96350398    -0.26200
Co225      Co  0.46100476  0.04156374  0.00172243     0.74100
C226        C  0.50198330  0.09530925  0.92341918     0.42400
N227        N  0.06555794  0.00847859  0.96378797     0.00800
N228        N  0.48787369  0.06425923  0.96437937     0.00900
N229        N  0.41283301  0.47655069  0.56344090    -0.47100
H230        H  0.44258560  0.41277339  0.93327953     0.06700
N231        N  0.43288103  0.48696381  0.96349430     0.01200
N232        N  0.48777708  0.06383718  0.53992554     0.00900
C233        C  0.00201899  0.09264371  0.58310214     0.42600
N234        N  0.06348739  0.47727426  0.96410775    -0.25700
C235        C  0.46660764  0.41695577  0.56556797    -0.06600
N236        N  0.02075659  0.41066889  0.94087510    -0.46800
N237        N  0.47674045  0.08214231  0.56508024    -0.47000
C238        C  0.99402488  0.40421830  0.58421413     0.42300
N239        N  0.43238080  0.48705948  0.53923897     0.01200
N240        N  0.06347196  0.47756194  0.53943113    -0.25700
N241        N  0.47914542  0.43357993  0.96439948    -0.26200
N242        N  0.06578530  0.00870480  0.53946232     0.00800
H243        H  0.08503109  0.44091252  0.57040996     0.06700
H244        H  0.05497624  0.08349821  0.57129285     0.06800
N245        N  0.43451746  0.01816803  0.53902060    -0.26200
N246        N  0.01904419  0.06225234  0.96422016    -0.25800
N247        N  0.00986945  0.43198260  0.54066297     0.01200
C248        C  0.40473549  0.50184958  0.91991658     0.42600
C249        C  0.08140014  0.46559894  0.93830222    -0.07100
N250        N  0.01897064  0.06192375  0.53979649    -0.25800
H251        H  0.05492021  0.08507658  0.93328298     0.06700
N252        N  0.41454847  0.47635737  0.93822976    -0.47100
H253        H  0.08485165  0.44076157  0.93255818     0.06700
C254        C  0.09642154  0.99343182  0.58046097     0.42400
C255        C  0.46743049  0.41538128  0.93912763    -0.06600
Co256      Co  0.03721354  0.45381944  0.50222242     0.73800
N257        N  0.08436654  0.01904131  0.93887293    -0.46800
C258        C  0.40139086  0.00227531  0.58013071     0.42700
N259        N  0.02000602  0.41415793  0.56672555    -0.46800
Co260      Co  0.04291371  0.03581286  0.00176777     0.73900
C261        C  0.03019193  0.07961648  0.56590950    -0.07100
C262        C  0.41838517  0.02965403  0.93695764    -0.06700
N263        N  0.47873745  0.43411269  0.53968094    -0.26200
N264        N  0.47672775  0.08370436  0.94044500    -0.46900
H265        H  0.41202186  0.05485064  0.56915765     0.06700
C266        C  0.08174728  0.46576628  0.56468779    -0.07100
Cl267      Cl  0.99914358  0.99780237  0.50178654    -0.50100
C268        C  0.09497590  0.49340462  0.92133279     0.42500
H269        H  0.44160226  0.41344743  0.56968977     0.06700
N270        N  0.08530869  0.01923179  0.56367701    -0.46800
N271        N  0.49984688  0.29629048  0.75308521    -0.36800
N272        N  0.49882749  0.24673805  0.80584789    -0.57300
N273        N  0.49809066  0.19877480  0.75144539    -0.36700
N274        N  0.49444771  0.24838820  0.69864592    -0.57300
C275        C  0.49548933  0.31392365  0.78204197     0.26800
C276        C  0.49348251  0.31503597  0.72548034     0.26800
C277        C  0.49279605  0.18057599  0.77970643     0.26800
C278        C  0.49060080  0.18132873  0.72326206     0.26800
C279        C  0.50498649  0.27192218  0.82630203     0.35400
C280        C  0.50433750  0.22074149  0.82532456     0.35500
C281        C  0.49853314  0.27430449  0.67849525     0.35400
C282        C  0.49769673  0.22282213  0.67773044     0.35500
C283        C  0.48659925  0.34434848  0.77279056    -0.22000
C284        C  0.48563223  0.34517580  0.73722577    -0.23800
C285        C  0.48200806  0.15109234  0.76937381    -0.22000
C286        C  0.48063642  0.15155339  0.73374987    -0.22000
C287        C  0.51411802  0.26192010  0.85901924    -0.23100
C288        C  0.51380639  0.22947748  0.85837943    -0.23100
C289        C  0.50361931  0.26507907  0.64442208    -0.23100
C290        C  0.50340898  0.23255620  0.64401255    -0.23100
C291        C  0.50078835  0.30386681  0.81655718    -0.18400
C292        C  0.49631103  0.30618949  0.69005343    -0.18400
C293        C  0.49421981  0.19083886  0.68827693    -0.18400
C294        C  0.49916292  0.18924762  0.81441803    -0.18400
H295        H  0.48181471  0.36413814  0.78986425     0.14500
H296        H  0.48014821  0.36597953  0.72204784     0.14500
H297        H  0.47605039  0.13119499  0.78577725     0.14500
H298        H  0.47331953  0.13207848  0.71740621     0.14500
H299        H  0.52029431  0.27648786  0.88106981     0.12800
H300        H  0.51969104  0.21410033  0.87988830     0.12800
H301        H  0.50705943  0.28013366  0.62206400     0.12800
H302        H  0.50673996  0.21779848  0.62135630     0.12800
H303        H  0.50835855  0.27334345  0.75214729     0.26000
H304        H  0.50816484  0.22104338  0.75127303     0.26000
N305        N  0.20007940  0.50079435  0.75202103    -0.36800
N306        N  0.24823275  0.50134728  0.69789208    -0.57300
N307        N  0.29765113  0.50456790  0.75074126    -0.36700
N308        N  0.24978928  0.49924419  0.80488599    -0.57300
C309        C  0.18224387  0.49404868  0.72385148     0.26800
C310        C  0.18302919  0.49278297  0.78036051     0.26800
C311        C  0.31534301  0.49948250  0.72203093     0.26800
C312        C  0.31621295  0.49841331  0.77850465     0.26800
C313        C  0.22219604  0.50599058  0.67817633     0.35400
C314        C  0.27340439  0.50785520  0.67749349     0.35500
C315        C  0.22413666  0.50246228  0.82561307     0.35400
C316        C  0.27545898  0.50478446  0.82491475     0.35500
C317        C  0.15334777  0.48191732  0.73443318    -0.22000
C318        C  0.15381128  0.48118623  0.77008236    -0.22000
C319        C  0.34565565  0.49036050  0.73161540    -0.22000
C320        C  0.34626781  0.48984281  0.76722578    -0.22000
C321        C  0.23091499  0.51528961  0.64504764    -0.23100
C322        C  0.26336138  0.51636349  0.64459237    -0.23100
C323        C  0.23355757  0.50972984  0.85907493    -0.23100
C324        C  0.26605939  0.51109595  0.85866446    -0.23100
C325        C  0.19076418  0.49994992  0.68894139    -0.18400
C326        C  0.19246971  0.49695960  0.81528603    -0.18400
C327        C  0.30729643  0.50213496  0.81367345    -0.18400
C328        C  0.30540674  0.50441564  0.68746213    -0.18400
H329        H  0.13386046  0.47451863  0.71817171     0.14500
H330        H  0.13475477  0.47305294  0.78656704     0.14500
H331        H  0.36543271  0.48498828  0.71471852     0.14500
H332        H  0.36671327  0.48407426  0.78289690     0.14500
H333        H  0.21552971  0.52055569  0.62336499     0.12800
H334        H  0.27790579  0.52259009  0.62252568     0.12800
H335        H  0.21859540  0.51325850  0.88154751     0.12800
H336        H  0.28103286  0.51584367  0.88079513     0.12800
H337        H  0.22192712  0.51187934  0.75200099     0.26000
H338        H  0.27477634  0.51349417  0.75135076     0.26000
C339        C  0.12070844  0.49433207  0.60791552    -0.06300
C340        C  0.11836839  0.01805541  0.63322583    -0.17400
C341        C  0.14072897  0.02055926  0.65980318     0.10900
C342        C  0.16576386  0.49832062  0.66176853    -0.06200
C343        C  0.16786661  0.47432549  0.63668351    -0.17400
C344        C  0.14620310  0.47256199  0.60938023     0.11000
S345        S  0.13609993  0.05284539  0.69000344    -0.32400
S346        S  0.15404543  0.44363021  0.57606519    -0.32400
H347        H  0.14552309  0.46368149  0.54845338     0.29000
H348        H  0.16855177  0.05715398  0.69636225     0.29000
H349        H  0.09905278  0.03496527  0.63212294     0.19600
H350        H  0.18728476  0.45749825  0.63775017     0.19600
C351        C  0.16749083  0.49517301  0.84247343    -0.06300
C352        C  0.14613881  0.02049004  0.84552810    -0.17400
C353        C  0.12168880  0.02003709  0.87002377     0.10900
C354        C  0.11894159  0.49413942  0.89311387    -0.06200
C355        C  0.14028093  0.46865932  0.88979345    -0.17400
C356        C  0.16416597  0.46870689  0.86452262     0.11000
S357        S  0.09399329  0.05254927  0.86912626    -0.32400
S358        S  0.18960357  0.43437764  0.86175048    -0.32400
H359        H  0.19572171  0.43650923  0.82601359     0.29000
H360        H  0.06713859  0.03361276  0.87476872     0.29000
H361        H  0.14819960  0.04053184  0.82813525     0.19600
H362        H  0.13853215  0.44856693  0.90711625     0.19600
C363        C  0.37652046  0.50215564  0.60730908    -0.06300
C364        C  0.37402881  0.02856382  0.62937669    -0.17400
C365        C  0.35075892  0.03027926  0.65514065     0.10900
C366        C  0.32989860  0.50462835  0.65982310    -0.06200
C367        C  0.33241814  0.47814051  0.63814748    -0.17400
C368        C  0.35498498  0.47681193  0.61166237     0.11000
S369        S  0.34895270  0.06578190  0.68111005    -0.32400
S370        S  0.35370546  0.44281265  0.58353092    -0.32400
H371        H  0.35411063  0.46101018  0.55296721     0.29000
H372        H  0.31631082  0.06464579  0.68805005     0.29000
H373        H  0.39024673  0.04819174  0.62656372     0.19600
H374        H  0.31620009  0.45855481  0.64154903     0.19600
C375        C  0.33289963  0.50260590  0.84015965    -0.06300
C376        C  0.34671042  0.47387267  0.85037924    -0.17400
C377        C  0.37143160  0.47298770  0.87453334     0.10900
C378        C  0.38129601  0.50132876  0.89101204    -0.06200
C379        C  0.36744134  0.03009683  0.88034289    -0.17400
C380        C  0.34409474  0.03109687  0.85463759     0.11000
S381        S  0.39016393  0.43513921  0.88149007    -0.32400
S382        S  0.32926509  0.06946692  0.84182643    -0.32400
H383        H  0.32192468  0.06137099  0.80743997     0.29000
H384        H  0.42106439  0.44733646  0.87909163     0.29000
H385        H  0.33880751  0.45202432  0.83851458     0.19600
H386        H  0.37471608  0.05220654  0.89194254     0.19600
C387        C  0.49997912  0.11647572  0.61141934    -0.06300
C388        C  0.47368656  0.13705495  0.61202084    -0.17400
C389        C  0.47070052  0.16088878  0.63709192     0.10900
C390        C  0.49518163  0.16537709  0.66147694    -0.06200
C391        C  0.02112662  0.14452954  0.66139293    -0.17400
C392        C  0.02332097  0.11966465  0.63750128     0.11000
S393        S  0.43502139  0.18450370  0.63671433    -0.32400
S394        S  0.05510072  0.09170612  0.64377634    -0.32400
H395        H  0.03684988  0.06501886  0.63524826     0.29000
H396        H  0.43451436  0.19106854  0.67242852     0.29000
H397        H  0.45516932  0.13459038  0.59279851     0.19600
H398        H  0.03942008  0.14714601  0.68086736     0.19600
C399        C  0.50053409  0.11945926  0.89571412    -0.06300
C400        C  0.02468088  0.11978782  0.87071540    -0.17400
C401        C  0.02480265  0.14202897  0.84389093     0.10900
C402        C  0.49973700  0.16410306  0.84130902    -0.06200
C403        C  0.47526489  0.16350372  0.86584640    -0.17400
C404        C  0.47569227  0.14200249  0.89335346     0.11000
S405        S  0.05773775  0.14108020  0.81410249    -0.32400
S406        S  0.44501335  0.14625566  0.92554884    -0.32400
H407        H  0.46589419  0.14351473  0.95381321     0.29000
H408        H  0.05799959  0.17365499  0.80675764     0.29000
H409        H  0.04378169  0.10270003  0.87214103     0.19600
H410        H  0.45627225  0.18077655  0.86421401     0.19600
C411        C  0.49654779  0.33202317  0.66360960    -0.06300
C412        C  0.46852156  0.34898664  0.65744101    -0.17400
C413        C  0.46783529  0.37471819  0.63461489     0.10900
C414        C  0.49461614  0.38123884  0.61359327    -0.06200
C415        C  0.02278200  0.36432936  0.62006484    -0.17400
C416        C  0.02434151  0.34083777  0.64568550     0.11000
S417        S  0.43347392  0.40002130  0.63715902    -0.32400
S418        S  0.06246162  0.32305751  0.65422674    -0.32400
H419        H  0.05680691  0.31582860  0.68924721     0.29000
H420        H  0.45078054  0.42826305  0.63360906     0.29000
H421        H  0.44746299  0.34332355  0.67224371     0.19600
H422        H  0.04395110  0.36959040  0.60530799     0.19600
C423        C  0.49609466  0.37439062  0.89727239    -0.06300
C424        C  0.02294277  0.37247576  0.87580178    -0.17400
C425        C  0.02553558  0.34934096  0.84993465     0.10900
C426        C  0.50030979  0.32809672  0.84452853    -0.06200
C427        C  0.47367451  0.32966542  0.86610505    -0.17400
C428        C  0.47158526  0.35190331  0.89285126     0.11000
S429        S  0.06158364  0.34814068  0.82484897    -0.32400
S430        S  0.43820174  0.34829599  0.92164358    -0.32400
H431        H  0.45620235  0.35288017  0.95189944     0.29000
H432        H  0.06077443  0.31564178  0.81712297     0.29000
H433        H  0.04216127  0.38911311  0.87922800     0.19600
H434        H  0.45463704  0.31284040  0.86252032     0.19600
C435        C  0.49503581  0.89970153  0.42390849     0.42300
N436        N  0.01024296  0.93075492  0.46466662     0.01200
C437        C  0.41593205  0.52996380  0.06406502    -0.06700
H438        H  0.41569901  0.55450175  0.43090387     0.06700
C439        C  0.03019754  0.58093344  0.43891394    -0.07000
Co440      Co  0.45530407  0.95999805  0.00163081     0.74200
N441        N  0.43528453  0.51806900  0.46350420    -0.26200
Co442      Co  0.46100455  0.54156372  0.50172253     0.74100
C443        C  0.50198299  0.59530929  0.42341916     0.42400
N444        N  0.06555789  0.50847856  0.46378791     0.00800
N445        N  0.48787340  0.56425930  0.46437938     0.00900
N446        N  0.41283294  0.97655083  0.06344069    -0.47100
H447        H  0.44258534  0.91277361  0.43327956     0.06700
N448        N  0.43288085  0.98696405  0.46349445     0.01200
N449        N  0.48777716  0.56383719  0.03992544     0.00900
C450        C  0.00201845  0.59264342  0.08310201     0.42600
N451        N  0.06348704  0.97727462  0.46410748    -0.25700
C452        C  0.46660760  0.91695595  0.06556805    -0.06600
N453        N  0.02075630  0.91066905  0.44087495    -0.46800
N454        N  0.47674041  0.58214231  0.06508005    -0.47000
C455        C  0.99402474  0.90421806  0.08421396     0.42300
N456        N  0.43238083  0.98705961  0.03923886     0.01200
N457        N  0.06347213  0.97756186  0.03943115    -0.25700
N458        N  0.47914525  0.93358020  0.46439942    -0.26200
N459        N  0.06578535  0.50870483  0.03946244     0.00800
H460        H  0.08503152  0.94091252  0.07041012     0.06700
H461        H  0.05497579  0.58349792  0.07129310     0.06800
N462        N  0.43451748  0.51816809  0.03902046    -0.26200
N463        N  0.01904422  0.56225226  0.46422006    -0.25800
N464        N  0.00986944  0.93198259  0.04066302     0.01200
C465        C  0.40473520  0.00184990  0.41991684     0.42600
C466        C  0.08139996  0.96559949  0.43830201    -0.07100
N467        N  0.01897038  0.56192348  0.03979648    -0.25800
H468        H  0.05492033  0.58507601  0.43328238     0.06700
N469        N  0.41454822  0.97635766  0.43822994    -0.47100
H470        H  0.08485139  0.94076222  0.43255765     0.06700
C471        C  0.09642177  0.49343193  0.08046095     0.42400
C472        C  0.46743022  0.91538154  0.43912763    -0.06600
Co473      Co  0.03721358  0.95381944  0.00222244     0.73800
N474        N  0.08436650  0.51904121  0.43887284    -0.46800
C475        C  0.40139107  0.50227537  0.08013069     0.42700
N476        N  0.02000595  0.91415778  0.06672552    -0.46800
Co477      Co  0.04291370  0.53581285  0.50176771     0.73900
C478        C  0.03019151  0.57961621  0.06590957    -0.07100
C479        C  0.41838491  0.52965406  0.43695787    -0.06700
N480        N  0.47873755  0.93411284  0.03968108    -0.26200
N481        N  0.47672743  0.58370445  0.44044504    -0.46900
H482        H  0.41202161  0.55485078  0.06915744     0.06700
C483        C  0.08174753  0.96576623  0.06468781    -0.07100
Cl484      Cl  0.99914370  0.49780217  0.00178653    -0.50100
C485        C  0.09497581  0.99340499  0.42133263     0.42500
H486        H  0.44160216  0.91344769  0.06968971     0.06700
N487        N  0.08530877  0.51923185  0.06367709    -0.46800
N488        N  0.49984578  0.79629083  0.25308505    -0.36800
N489        N  0.49882700  0.74673828  0.30584815    -0.57300
N490        N  0.49809063  0.69877483  0.25144548    -0.36700
N491        N  0.49444714  0.74838811  0.19864592    -0.57300
C492        C  0.49548823  0.81392363  0.28204172     0.26800
C493        C  0.49348152  0.81503599  0.22548012     0.26800
C494        C  0.49279624  0.68057616  0.27970654     0.26800
C495        C  0.49060105  0.68132886  0.22326219     0.26800
C496        C  0.50498573  0.77192247  0.32630237     0.35400
C497        C  0.50433708  0.72074175  0.32532487     0.35500
C498        C  0.49853228  0.77430444  0.17849520     0.35400
C499        C  0.49769624  0.72282206  0.17773042     0.35500
C500        C  0.48659811  0.84434859  0.27279004    -0.22000
C501        C  0.48563104  0.84517597  0.23722531    -0.23800
C502        C  0.48200860  0.65109241  0.26937393    -0.22000
C503        C  0.48063708  0.65155358  0.23375016    -0.22000
C504        C  0.51411708  0.76192055  0.35901991    -0.23100
C505        C  0.51380568  0.72947780  0.35837996    -0.23100
C506        C  0.50361860  0.76507909  0.14442207    -0.23100
C507        C  0.50340848  0.73255622  0.14401259    -0.23100
C508        C  0.50078735  0.80386706  0.31655714    -0.18400
C509        C  0.49630999  0.80618951  0.19005323    -0.18400
C510        C  0.49421973  0.69083872  0.18827691    -0.18400
C511        C  0.49916273  0.68924781  0.31441822    -0.18400
H512        H  0.48181312  0.86413829  0.28986347     0.14500
H513        H  0.48014735  0.86597982  0.22204741     0.14500
H514        H  0.47605104  0.63119476  0.28577692     0.14500
H515        H  0.47332076  0.63207843  0.21740663     0.14500
H516        H  0.52029323  0.77648846  0.38107044     0.12800
H517        H  0.51969042  0.71410043  0.37988860     0.12800
H518        H  0.50705859  0.78013371  0.12206399     0.12800
H519        H  0.50673955  0.71779854  0.12135633     0.12800
H520        H  0.50835767  0.77334235  0.25214710     0.26000
H521        H  0.50816473  0.72104420  0.25127312     0.26000
N522        N  0.20007999  0.00079464  0.25202115    -0.36800
N523        N  0.24823284  0.00134768  0.19789211    -0.57300
N524        N  0.29765125  0.00456808  0.25074127    -0.36700
N525        N  0.24978920  0.99924438  0.30488611    -0.57300
C526        C  0.18224428  0.99404885  0.22385161     0.26800
C527        C  0.18302938  0.99278306  0.28036060     0.26800
C528        C  0.31534324  0.99948292  0.22203091     0.26800
C529        C  0.31621310  0.99841362  0.27850469     0.26800
C530        C  0.22219612  0.00599082  0.17817632     0.35400
C531        C  0.27340447  0.00785548  0.17749350     0.35500
C532        C  0.22413653  0.00246241  0.32561338     0.35400
C533        C  0.27545882  0.00478463  0.32491473     0.35500
C534        C  0.15334843  0.98191743  0.23443336    -0.22000
C535        C  0.15381161  0.98118617  0.27008246    -0.22000
C536        C  0.34565599  0.99036105  0.23161535    -0.22000
C537        C  0.34626811  0.98984336  0.26722579    -0.22000
C538        C  0.23091501  0.01528996  0.14504767    -0.23100
C539        C  0.26336139  0.01636382  0.14459245    -0.23100
C540        C  0.23355714  0.00972987  0.35907545    -0.23100
C541        C  0.26605901  0.01109601  0.35866442    -0.23100
C542        C  0.19076439  0.99995014  0.18894146    -0.18400
C543        C  0.19246980  0.99695968  0.31528607    -0.18400
C544        C  0.30729638  0.00213531  0.31367349    -0.18400
C545        C  0.30540687  0.00441604  0.18746211    -0.18400
H546        H  0.13386130  0.97451866  0.21817169     0.14500
H547        H  0.13475468  0.97305314  0.28656679     0.14500
H548        H  0.36543309  0.98498897  0.21471844     0.14500
H549        H  0.36671352  0.98407447  0.28289684     0.14500
H550        H  0.21552978  0.02055591  0.12336492     0.12800
H551        H  0.27790580  0.02259001  0.12252564     0.12800
H552        H  0.21859508  0.01325851  0.38154821     0.12800
H553        H  0.28103280  0.01584362  0.38079478     0.12800
H554        H  0.22192683  0.01187918  0.25200112     0.26000
H555        H  0.27477644  0.01349403  0.25135080     0.26000
C556        C  0.12070867  0.99433202  0.10791547    -0.06300
C557        C  0.11836830  0.51805512  0.13322611    -0.17400
C558        C  0.14072887  0.52055857  0.15980360     0.10900
C559        C  0.16576406  0.99832064  0.16176853    -0.06200
C560        C  0.16786705  0.97432552  0.13668338    -0.17400
C561        C  0.14620354  0.97256210  0.10938006     0.11000
S562        S  0.13609971  0.55284420  0.19000447    -0.32400
S563        S  0.15404608  0.94363067  0.07606481    -0.32400
H564        H  0.14552337  0.96368231  0.04845347     0.29000
H565        H  0.16855150  0.55715333  0.19636322     0.29000
H566        H  0.09905269  0.53496505  0.13212328     0.19600
H567        H  0.18728533  0.95749839  0.13774984     0.19600
C568        C  0.16749078  0.99517315  0.34247327    -0.06300
C569        C  0.14613824  0.52048912  0.34552737    -0.17400
C570        C  0.12168814  0.52003618  0.37002300     0.10900
C571        C  0.11894156  0.99413968  0.39311373    -0.06200
C572        C  0.14028064  0.96865939  0.38979312    -0.17400
C573        C  0.16416569  0.96870689  0.36452228     0.11000
S574        S  0.09399168  0.55254749  0.36912436    -0.32400
S575        S  0.18960304  0.93437740  0.36174967    -0.32400
H576        H  0.19572141  0.93650930  0.32601284     0.29000
H577        H  0.06713740  0.53361063  0.37476790     0.29000
H578        H  0.14819843  0.54053041  0.32813374     0.19600
H579        H  0.13853166  0.94856688  0.40711574     0.19600
C580        C  0.37652043  0.00215600  0.10730880    -0.06300
C581        C  0.37402837  0.52856429  0.12937604    -0.17400
C582        C  0.35075844  0.53027961  0.15513994     0.10900
C583        C  0.32989875  0.00462875  0.15982299    -0.06200
C584        C  0.33241855  0.97814077  0.13814758    -0.17400
C585        C  0.35498526  0.97681209  0.11166241     0.11000
S586        S  0.34895130  0.56578274  0.18110845    -0.32400
S587        S  0.35370584  0.94281251  0.08353128    -0.32400
H588        H  0.35411070  0.96100965  0.05296728     0.29000
H589        H  0.31630952  0.56464596  0.18804882     0.29000
H590        H  0.39024572  0.54819266  0.12656258     0.19600
H591        H  0.31620054  0.95855504  0.14154912     0.19600
C592        C  0.33289956  0.00260639  0.34015976    -0.06300
C593        C  0.34671046  0.97387319  0.35037923    -0.17400
C594        C  0.37143152  0.97298815  0.37453337     0.10900
C595        C  0.38129576  0.00132915  0.39101230    -0.06200
C596        C  0.36744094  0.53009686  0.38034339    -0.17400
C597        C  0.34409442  0.53109685  0.35463797     0.11000
S598        S  0.39016348  0.93513948  0.38149015    -0.32400
S599        S  0.32926431  0.56946682  0.34182717    -0.32400
H600        H  0.32192444  0.56137123  0.30744045     0.29000
H601        H  0.42106399  0.94733657  0.37909182     0.29000
H602        H  0.33880780  0.95202481  0.33851445     0.19600
H603        H  0.37471500  0.55220651  0.39194369     0.19600
C604        C  0.49997885  0.61647553  0.11141921    -0.06300
C605        C  0.47368630  0.63705481  0.11202061    -0.17400
C606        C  0.47070030  0.66088868  0.13709176     0.10900
C607        C  0.49518139  0.66537694  0.16147680    -0.06200
C608        C  0.02112614  0.64452894  0.16139327    -0.17400
C609        C  0.02332024  0.61966407  0.13750155     0.11000
S610        S  0.43502124  0.68450370  0.13671446    -0.32400
S611        S  0.05509972  0.59170523  0.14377681    -0.32400
H612        H  0.03684899  0.56501801  0.13524831     0.29000
H613        H  0.43451425  0.69106812  0.17242875     0.29000
H614        H  0.45516902  0.63459004  0.09279835     0.19600
H615        H  0.03941947  0.64714503  0.18086801     0.19600
C616        C  0.50053388  0.61945924  0.39571407    -0.06300
C617        C  0.02468118  0.61978794  0.37071535    -0.17400
C618        C  0.02480299  0.64202907  0.34389093     0.10900
C619        C  0.49973676  0.66410323  0.34130916    -0.06200
C620        C  0.47526441  0.66350379  0.36584628    -0.17400
C621        C  0.47569184  0.64200244  0.39335322     0.11000
S622        S  0.05773846  0.64108054  0.31410291    -0.32400
S623        S  0.44501260  0.64625532  0.42554832    -0.32400
H624        H  0.46589287  0.64351484  0.45381326     0.29000
H625        H  0.05799989  0.67365534  0.30675816     0.29000
H626        H  0.04378204  0.60270023  0.37214093     0.19600
H627        H  0.45627171  0.68077663  0.36421403     0.19600
C628        C  0.49654719  0.83202315  0.16360934    -0.06300
C629        C  0.46852113  0.84898658  0.15744036    -0.17400
C630        C  0.46783493  0.87471825  0.13461453     0.10900
C631        C  0.49461597  0.88123910  0.11359335    -0.06200
C632        C  0.02278181  0.86432929  0.12006504    -0.17400
C633        C  0.02434129  0.84083769  0.14568572     0.11000
S634        S  0.43347332  0.90002116  0.13715868    -0.32400
S635        S  0.06246147  0.82305764  0.15422751    -0.32400
H636        H  0.05680677  0.81582867  0.18924800     0.29000
H637        H  0.45078014  0.92826279  0.13360882     0.29000
H638        H  0.44746239  0.84332328  0.17224261     0.19600
H639        H  0.04395110  0.86959066  0.10530865     0.19600
C640        C  0.49609412  0.87439089  0.39727235    -0.06300
C641        C  0.02294260  0.87247557  0.37580205    -0.17400
C642        C  0.02553558  0.84934072  0.34993496     0.10900
C643        C  0.50030885  0.82809709  0.34452833    -0.06200
C644        C  0.47367384  0.82966549  0.36610534    -0.17400
C645        C  0.47158482  0.85190339  0.39285158     0.11000
S646        S  0.06158391  0.84814042  0.32484969    -0.32400
S647        S  0.43820186  0.84829578  0.42164457    -0.32400
H648        H  0.45620247  0.85288048  0.45190036     0.29000
H649        H  0.06077471  0.81564147  0.31712398     0.29000
H650        H  0.04216133  0.88911255  0.37922877     0.19600
H651        H  0.45463638  0.81284037  0.36252097     0.19600
C652        C  0.49503663  0.89970101  0.92390873     0.42300
N653        N  0.01024303  0.93075449  0.96466675     0.01200
C654        C  0.41593224  0.52996349  0.56406511    -0.06700
H655        H  0.41569881  0.55450183  0.93090364     0.06700
C656        C  0.03019761  0.58093340  0.93891413    -0.07000
Co657      Co  0.45530383  0.95999828  0.50163088     0.74200
N658        N  0.43528468  0.51806917  0.96350405    -0.26200
Co659      Co  0.46100462  0.54156389  0.00172256     0.74100
C660        C  0.50198340  0.59530911  0.92341905     0.42400
N661        N  0.06555798  0.50847869  0.96378822     0.00800
N662        N  0.48787356  0.56425939  0.96437946     0.00900
N663        N  0.41283279  0.97655077  0.56344074    -0.47100
H664        H  0.44258638  0.91277337  0.93327903     0.06700
N665        N  0.43288112  0.98696369  0.96349421     0.01200
N666        N  0.48777706  0.56383710  0.53992522     0.00900
C667        C  0.00201875  0.59264362  0.58310176     0.42600
N668        N  0.06348734  0.97727414  0.96410746    -0.25700
C669        C  0.46660755  0.91695595  0.56556803    -0.06600
N670        N  0.02075640  0.91066851  0.94087525    -0.46800
N671        N  0.47674050  0.58214238  0.56507986    -0.47000
C672        C  0.99402464  0.90421811  0.58421386     0.42300
N673        N  0.43238067  0.98705968  0.53923897     0.01200
N674        N  0.06347184  0.97756189  0.53943120    -0.25700
N675        N  0.47914580  0.93357985  0.96439957    -0.26200
N676        N  0.06578537  0.50870485  0.53946223     0.00800
H677        H  0.08503043  0.94091217  0.57041013     0.06700
H678        H  0.05497598  0.58349822  0.57129287     0.06800
N679        N  0.43451760  0.51816781  0.53902049    -0.26200
N680        N  0.01904424  0.56225226  0.96422024    -0.25800
N681        N  0.00986929  0.93198273  0.54066288     0.01200
C682        C  0.40473549  0.00184953  0.91991654     0.42600
C683        C  0.08140019  0.96559883  0.93830198    -0.07100
N684        N  0.01897056  0.56192358  0.53979630    -0.25800
H685        H  0.05492040  0.58507601  0.93328276     0.06700
N686        N  0.41454850  0.97635731  0.93822968    -0.47100
H687        H  0.08485173  0.94076146  0.93255789     0.06700
C688        C  0.09642177  0.49343201  0.58046084     0.42400
C689        C  0.46743113  0.91538106  0.93912772    -0.06600
Co690      Co  0.03721337  0.95381971  0.50222234     0.73800
N691        N  0.08436659  0.51904140  0.93887319    -0.46800
C692        C  0.40139121  0.50227520  0.58013096     0.42700
N693        N  0.02000582  0.91415789  0.56672538    -0.46800
Co694      Co  0.04291367  0.53581286  0.00176795     0.73900
C695        C  0.03019174  0.57961641  0.56590929    -0.07100
C696        C  0.41838505  0.52965415  0.93695762    -0.06700
N697        N  0.47873738  0.93411290  0.53968100    -0.26200
N698        N  0.47672777  0.58370449  0.94044495    -0.46900
H699        H  0.41202211  0.55485046  0.56915755     0.06700
C700        C  0.08174699  0.96576598  0.56468790    -0.07100
Cl701      Cl  0.99914371  0.49780212  0.50178644    -0.50100
C702        C  0.09497588  0.99340455  0.92133253     0.42500
H703        H  0.44160218  0.91344778  0.56969003     0.06700
N704        N  0.08530877  0.51923188  0.56367689    -0.46800
N705        N  0.49984683  0.79629083  0.75308490    -0.36800
N706        N  0.49882809  0.74673802  0.80584772    -0.57300
N707        N  0.49809163  0.69877470  0.75144527    -0.36700
N708        N  0.49444804  0.74838818  0.69864577    -0.57300
C709        C  0.49548943  0.81392348  0.78204165     0.26800
C710        C  0.49348240  0.81503600  0.72548005     0.26800
C711        C  0.49279717  0.68057604  0.77970633     0.26800
C712        C  0.49060178  0.68132879  0.72326193     0.26800
C713        C  0.50498698  0.77192215  0.82630186     0.35400
C714        C  0.50433837  0.72074149  0.82532446     0.35500
C715        C  0.49853327  0.77430452  0.67849503     0.35400
C716        C  0.49769710  0.72282214  0.67773028     0.35500
C717        C  0.48659907  0.84434835  0.77279014    -0.22000
C718        C  0.48563196  0.84517594  0.73722539    -0.23800
C719        C  0.48200938  0.65109237  0.76937366    -0.22000
C720        C  0.48063768  0.65155342  0.73374984    -0.22000
C721        C  0.51411877  0.76192012  0.85901905    -0.23100
C722        C  0.51380738  0.72947746  0.85837931    -0.23100
C723        C  0.50361942  0.76507915  0.64442184    -0.23100
C724        C  0.50340925  0.73255632  0.64401248    -0.23100
C725        C  0.50078860  0.80386684  0.81655700    -0.18400
C726        C  0.49631091  0.80618958  0.69005315    -0.18400
C727        C  0.49422048  0.69083880  0.68827671    -0.18400
C728        C  0.49916377  0.68924762  0.81441800    -0.18400
H729        H  0.48181448  0.86413795  0.78986382     0.14500
H730        H  0.48014809  0.86597983  0.72204760     0.14500
H731        H  0.47605172  0.63119488  0.78577684     0.14500
H732        H  0.47332097  0.63207830  0.71740645     0.14500
H733        H  0.52029506  0.77648802  0.88106949     0.12800
H734        H  0.51969248  0.71410025  0.87988798     0.12800
H735        H  0.50705920  0.78013354  0.62206353     0.12800
H736        H  0.50674033  0.71779864  0.62135627     0.12800
H737        H  0.50835884  0.77334231  0.75214679     0.26000
H738        H  0.50816597  0.72104394  0.75127293     0.26000
N739        N  0.20007942  0.00079471  0.75202106    -0.36800
N740        N  0.24823256  0.00134772  0.69789216    -0.57300
N741        N  0.29765059  0.00456813  0.75074139    -0.36700
N742        N  0.24978921  0.99924449  0.80488616    -0.57300
C743        C  0.18224397  0.99404917  0.72385154     0.26800
C744        C  0.18302911  0.99278333  0.78036056     0.26800
C745        C  0.31534288  0.99948239  0.72203101     0.26800
C746        C  0.31621290  0.99841303  0.77850482     0.26800
C747        C  0.22219592  0.00599091  0.67817624     0.35400
C748        C  0.27340425  0.00785541  0.67749365     0.35500
C749        C  0.22413659  0.00246269  0.82561322     0.35400
C750        C  0.27545891  0.00478472  0.82491498     0.35500
C751        C  0.15334793  0.98191804  0.73443345    -0.22000
C752        C  0.15381116  0.98118662  0.77008259    -0.22000
C753        C  0.34565528  0.99035995  0.73161562    -0.22000
C754        C  0.34626761  0.98984214  0.76722602    -0.22000
C755        C  0.23091492  0.01528975  0.64504754    -0.23100
C756        C  0.26336127  0.01636350  0.64459259    -0.23100
C757        C  0.23355747  0.00973018  0.85907527    -0.23100
C758        C  0.26605939  0.01109627  0.85866480    -0.23100
C759        C  0.19076411  0.99995046  0.68894135    -0.18400
C760        C  0.19246971  0.99695989  0.81528600    -0.18400
C761        C  0.30729622  0.00213503  0.81367353    -0.18400
C762        C  0.30540655  0.00441570  0.68746225    -0.18400
H763        H  0.13386064  0.97451961  0.71817188     0.14500
H764        H  0.13475451  0.97305322  0.78656708     0.14500
H765        H  0.36543237  0.98498772  0.71471878     0.14500
H766        H  0.36671312  0.98407304  0.78289696     0.14500
H767        H  0.21552989  0.02055536  0.62336454     0.12800
H768        H  0.27790587  0.02258961  0.62252592     0.12800
H769        H  0.21859522  0.01325853  0.88154785     0.12800
H770        H  0.28103309  0.01584392  0.88079532     0.12800
H771        H  0.22192711  0.01187955  0.75200106     0.26000
H772        H  0.27477769  0.01349423  0.75135091     0.26000
C773        C  0.12070820  0.99433207  0.60791566    -0.06300
C774        C  0.11836817  0.51805480  0.63322627    -0.17400
C775        C  0.14072864  0.52055852  0.65980378     0.10900
C776        C  0.16576381  0.99832097  0.66176848    -0.06200
C777        C  0.16786623  0.97432537  0.63668395    -0.17400
C778        C  0.14620256  0.97256161  0.60938082     0.11000
S779        S  0.13609910  0.55284411  0.69000474    -0.32400
S780        S  0.15404431  0.94362894  0.57606653    -0.32400
H781        H  0.14552278  0.96368004  0.54845428     0.29000
H782        H  0.16855079  0.55715313  0.69636426     0.29000
H783        H  0.09905249  0.53496456  0.63212336     0.19600
H784        H  0.18728407  0.95749778  0.63775109     0.19600
C785        C  0.16749076  0.99517334  0.84247317    -0.06300
C786        C  0.14613851  0.52048936  0.84552805    -0.17400
C787        C  0.12168845  0.52003661  0.87002364     0.10900
C788        C  0.11894156  0.99413944  0.89311358    -0.06200
C789        C  0.14028055  0.96865909  0.88979272    -0.17400
C790        C  0.16416552  0.96870679  0.86452185     0.11000
S791        S  0.09399250  0.55254846  0.86912543    -0.32400
S792        S  0.18960271  0.93437723  0.86174897    -0.32400
H793        H  0.19572128  0.93650942  0.82601222     0.29000
H794        H  0.06713783  0.53361204  0.87476853     0.29000
H795        H  0.14819918  0.54053094  0.82813497     0.19600
H796        H  0.13853164  0.94856644  0.90711520     0.19600
C797        C  0.37652019  0.00215586  0.60730885    -0.06300
C798        C  0.37402877  0.52856377  0.62937652    -0.17400
C799        C  0.35075891  0.53027923  0.65514044     0.10900
C800        C  0.32989863  0.00462844  0.65982325    -0.06200
C801        C  0.33241793  0.97814095  0.63814713    -0.17400
C802        C  0.35498464  0.97681231  0.61166196     0.11000
S803        S  0.34895257  0.56578211  0.68110953    -0.32400
S804        S  0.35370458  0.94281325  0.58353014    -0.32400
H805        H  0.35411023  0.96101077  0.55296642     0.29000
H806        H  0.31631075  0.56464589  0.68804982     0.29000
H807        H  0.39024680  0.54819162  0.62656359     0.19600
H808        H  0.31619970  0.95855540  0.64154832     0.19600
C809        C  0.33289951  0.00260589  0.84015971    -0.06300
C810        C  0.34671029  0.97387266  0.85037930    -0.17400
C811        C  0.37143150  0.97298769  0.87453337     0.10900
C812        C  0.38129596  0.00132874  0.89101204    -0.06200
C813        C  0.36744139  0.53009686  0.88034285    -0.17400
C814        C  0.34409479  0.53109689  0.85463759     0.11000
S815        S  0.39016376  0.93513919  0.88149010    -0.32400
S816        S  0.32926514  0.56946694  0.84182648    -0.32400
H817        H  0.32192527  0.56137084  0.80743994     0.29000
H818        H  0.42106425  0.94733635  0.87909159     0.29000
H819        H  0.33880736  0.95202429  0.83851471     0.19600
H820        H  0.37471597  0.55220659  0.89194256     0.19600
C821        C  0.49997943  0.61647580  0.61141898    -0.06300
C822        C  0.47368699  0.63705516  0.61202066    -0.17400
C823        C  0.47070088  0.66088899  0.63709175     0.10900
C824        C  0.49518196  0.66537710  0.66147665    -0.06200
C825        C  0.02112646  0.64452911  0.66139267    -0.17400
C826        C  0.02332060  0.61966417  0.63750105     0.11000
S827        S  0.43502169  0.68450391  0.63671443    -0.32400
S828        S  0.05509987  0.59170503  0.64377648    -0.32400
H829        H  0.03684904  0.56501788  0.63524792     0.29000
H830        H  0.43451473  0.69106866  0.67242865     0.29000
H831        H  0.45516975  0.63459048  0.59279843     0.19600
H832        H  0.03941985  0.64714533  0.68086726     0.19600
C833        C  0.50053437  0.61945915  0.89571400    -0.06300
C834        C  0.02468131  0.61978780  0.87071539    -0.17400
C835        C  0.02480349  0.64202893  0.84389098     0.10900
C836        C  0.49973770  0.66410309  0.84130905    -0.06200
C837        C  0.47526555  0.66350392  0.86584640    -0.17400
C838        C  0.47569280  0.64200265  0.89335345     0.11000
S839        S  0.05773917  0.64108032  0.81410319    -0.32400
S840        S  0.44501403  0.64625592  0.92554901    -0.32400
H841        H  0.46589481  0.64351492  0.95381345     0.29000
H842        H  0.05800043  0.67365503  0.80675797     0.29000
H843        H  0.04378188  0.60269982  0.87214087     0.19600
H844        H  0.45627294  0.68077677  0.86421395     0.19600
C845        C  0.49654787  0.83202326  0.66360935    -0.06300
C846        C  0.46852168  0.84898651  0.65744064    -0.17400
C847        C  0.46783522  0.87471809  0.63461462     0.10900
C848        C  0.49461609  0.88123898  0.61359313    -0.06200
C849        C  0.02278157  0.86432924  0.62006488    -0.17400
C850        C  0.02434121  0.84083783  0.64568561     0.11000
S851        S  0.43347362  0.90002096  0.63715882    -0.32400
S852        S  0.06246161  0.82305791  0.65422700    -0.32400
H853        H  0.05680718  0.81582909  0.68924757     0.29000
H854        H  0.45078037  0.92826265  0.63360902     0.29000
H855        H  0.44746317  0.84332308  0.67224325     0.19600
H856        H  0.04395085  0.86959058  0.60530846     0.19600
C857        C  0.49609499  0.87439048  0.89727244    -0.06300
C858        C  0.02294288  0.87247487  0.87580235    -0.17400
C859        C  0.02553606  0.84934026  0.84993506     0.10900
C860        C  0.50030983  0.82809674  0.84452836    -0.06200
C861        C  0.47367447  0.82966523  0.86610489    -0.17400
C862        C  0.47158540  0.85190313  0.89285119     0.11000
S863        S  0.06158444  0.84813999  0.82484981    -0.32400
S864        S  0.43820192  0.84829596  0.92164356    -0.32400
H865        H  0.45620249  0.85288014  0.95189945     0.29000
H866        H  0.06077526  0.81564111  0.81712363     0.29000
H867        H  0.04216157  0.88911180  0.87922911     0.19600
H868        H  0.45463696  0.81284018  0.86252005     0.19600
C869        C  0.99503634  0.39970109  0.42390865     0.42300
N870        N  0.51024293  0.43075458  0.46466668     0.01200
C871        C  0.91593228  0.02996377  0.06406513    -0.06700
H872        H  0.91569897  0.05450220  0.43090392     0.06700
C873        C  0.53019712  0.08093363  0.43891416    -0.07000
Co874      Co  0.95530398  0.45999808  0.00163083     0.74200
N875        N  0.93528458  0.01806946  0.46350432    -0.26200
Co876      Co  0.96100459  0.04156406  0.50172278     0.74100
C877        C  0.00198303  0.09530926  0.42341924     0.42400
N878        N  0.56555780  0.00847897  0.46378805     0.00800
N879        N  0.98787340  0.06425956  0.46437967     0.00900
N880        N  0.91283295  0.47655076  0.06344073    -0.47100
H881        H  0.94258607  0.41277352  0.43327919     0.06700
N882        N  0.93288093  0.48696360  0.46349433     0.01200
N883        N  0.98777716  0.06383707  0.03992532     0.00900
C884        C  0.50201886  0.09264352  0.08310181     0.42600
N885        N  0.56348706  0.47727433  0.46410740    -0.25700
C886        C  0.96660768  0.41695588  0.06556792    -0.06600
N887        N  0.52075632  0.41066862  0.44087514    -0.46800
N888        N  0.97674052  0.08214228  0.06507996    -0.47000
C889        C  0.49402473  0.40421821  0.08421411     0.42300
N890        N  0.93238068  0.48705967  0.03923887     0.01200
N891        N  0.56347183  0.47756195  0.03943144    -0.25700
N892        N  0.97914559  0.43357983  0.46439955    -0.26200
N893        N  0.56578558  0.00870473  0.03946234     0.00800
H894        H  0.58503073  0.44091240  0.07041039     0.06700
H895        H  0.55497618  0.08349829  0.07129273     0.06800
N896        N  0.93451758  0.01816801  0.03902046    -0.26200
N897        N  0.51904400  0.06225246  0.46422034    -0.25800
N898        N  0.50986943  0.43198260  0.04066301     0.01200
C899        C  0.90473516  0.50184947  0.41991683     0.42600
C900        C  0.58139991  0.46559916  0.43830191    -0.07100
N901        N  0.51897068  0.06192355  0.03979634    -0.25800
H902        H  0.55491982  0.08507642  0.43328259     0.06700
N903        N  0.91454825  0.47635724  0.43822987    -0.47100
H904        H  0.58485155  0.44076184  0.43255793     0.06700
C905        C  0.59642208  0.99343190  0.08046081     0.42400
C906        C  0.96743085  0.41538116  0.43912769    -0.06600
Co907      Co  0.53721350  0.45381961  0.00222258     0.73800
N908        N  0.58436648  0.01904164  0.43887301    -0.46800
C909        C  0.90139135  0.00227542  0.08013093     0.42700
N910        N  0.52000593  0.41415785  0.06672558    -0.46800
Co911      Co  0.54291362  0.03581301  0.50176791     0.73900
C912        C  0.53019190  0.07961626  0.06590942    -0.07100
C913        C  0.91838505  0.02965452  0.43695787    -0.06700
N914        N  0.97873758  0.43411284  0.03968101    -0.26200
N915        N  0.97672748  0.08370464  0.44044521    -0.46900
H916        H  0.91202206  0.05485074  0.06915769     0.06700
C917        C  0.58174714  0.46576616  0.06468805    -0.07100
Cl918      Cl  0.49914384  0.99780214  0.00178646    -0.50100
C919        C  0.59497581  0.49340466  0.42133251     0.42500
H920        H  0.94160225  0.41344772  0.06968961     0.06700
N921        N  0.58530897  0.01923183  0.06367694    -0.46800
N922        N  0.99984691  0.29629065  0.25308497    -0.36800
N923        N  0.99882814  0.24673813  0.30584792    -0.57300
N924        N  0.99809179  0.19877523  0.25144545    -0.36700
N925        N  0.99444783  0.24838802  0.19864568    -0.57300
C926        C  0.99548929  0.31392376  0.28204176     0.26800
C927        C  0.99348225  0.31503598  0.22548001     0.26800
C928        C  0.99279715  0.18057602  0.27970659     0.26800
C929        C  0.99060187  0.18132879  0.22326215     0.26800
C930        C  0.00498692  0.27192232  0.32630205     0.35400
C931        C  0.00433826  0.22074160  0.32532467     0.35500
C932        C  0.99853301  0.27430430  0.17849493     0.35400
C933        C  0.99769702  0.22282194  0.17773019     0.35500
C934        C  0.98659910  0.34434856  0.27279028    -0.22000
C935        C  0.98563185  0.34517581  0.23722542    -0.23800
C936        C  0.98200957  0.15109245  0.26937404    -0.22000
C937        C  0.98063789  0.15155371  0.23375027    -0.22000
C938        C  0.01411857  0.26192029  0.35901936    -0.23100
C939        C  0.01380710  0.22947762  0.35837954    -0.23100
C940        C  0.00361938  0.26507882  0.14442176    -0.23100
C941        C  0.00340918  0.23255596  0.14401224    -0.23100
C942        C  0.00078853  0.30386691  0.31655698    -0.18400
C943        C  0.99631073  0.30618933  0.19005309    -0.18400
C944        C  0.99422040  0.19083877  0.18827687    -0.18400
C945        C  0.99916392  0.18924778  0.31441813    -0.18400
H946        H  0.98181436  0.36413815  0.28986402     0.14500
H947        H  0.98014798  0.36597953  0.22204742     0.14500
H948        H  0.97605152  0.13119491  0.28577705     0.14500
H949        H  0.97332116  0.13207860  0.21740689     0.14500
H950        H  0.02029479  0.27648805  0.38106995     0.12800
H951        H  0.01969186  0.21410033  0.37988824     0.12800
H952        H  0.00705940  0.28013335  0.12206362     0.12800
H953        H  0.00674018  0.21779831  0.12135594     0.12800
H954        H  0.00835888  0.27334389  0.25214709     0.26000
H955        H  0.00816529  0.22104244  0.25127309     0.26000
N956        N  0.70007960  0.50079399  0.25202099    -0.36800
N957        N  0.74823285  0.50134688  0.19789201    -0.57300
N958        N  0.79765148  0.50456700  0.25074140    -0.36700
N959        N  0.74978923  0.49924391  0.30488610    -0.57300
C960        C  0.68224414  0.49404832  0.22385147     0.26800
C961        C  0.68302934  0.49278275  0.28036041     0.26800
C962        C  0.81534310  0.49948176  0.22203109     0.26800
C963        C  0.81621316  0.49841251  0.27850484     0.26800
C964        C  0.72219622  0.50598988  0.17817612     0.35400
C965        C  0.77340454  0.50785443  0.17749336     0.35500
C966        C  0.72413655  0.50246210  0.32561323     0.35400
C967        C  0.77545887  0.50478416  0.32491484     0.35500
C968        C  0.65334802  0.48191714  0.23443313    -0.22000
C969        C  0.65381147  0.48118602  0.27008222    -0.22000
C970        C  0.84565581  0.49035960  0.23161564    -0.22000
C971        C  0.84626825  0.48984189  0.26722609    -0.22000
C972        C  0.73091523  0.51528862  0.14504723    -0.23100
C973        C  0.76336170  0.51636243  0.14459201    -0.23100
C974        C  0.73355722  0.50972971  0.35907532    -0.23100
C975        C  0.76605912  0.51109576  0.35866463    -0.23100
C976        C  0.69076438  0.49994949  0.18894134    -0.18400
C977        C  0.69246974  0.49695935  0.31528594    -0.18400
C978        C  0.80729643  0.50213454  0.31367356    -0.18400
C979        C  0.80540685  0.50441484  0.18746221    -0.18400
H980        H  0.63386072  0.47451841  0.21817163     0.14500
H981        H  0.63475473  0.47305309  0.28656677     0.14500
H982        H  0.86543274  0.48498752  0.21471858     0.14500
H983        H  0.86671380  0.48407312  0.28289704     0.14500
H984        H  0.71552992  0.52055401  0.12336437     0.12800
H985        H  0.77790637  0.52258826  0.12252525     0.12800
H986        H  0.71859501  0.51325805  0.38154799     0.12800
H987        H  0.78103274  0.51584340  0.38079518     0.12800
H988        H  0.72192755  0.51187896  0.25200092     0.26000
H989        H  0.77477593  0.51349345  0.25135093     0.26000
C990        C  0.62070848  0.49433187  0.10791564    -0.06300
C991        C  0.61836813  0.01805470  0.13322635    -0.17400
C992        C  0.64072854  0.02055849  0.15980391     0.10900
C993        C  0.66576411  0.49832014  0.16176851    -0.06200
C994        C  0.66786651  0.47432455  0.13668389    -0.17400
C995        C  0.64620280  0.47256121  0.10938071     0.11000
S996        S  0.63609836  0.05284370  0.19000517    -0.32400
S997        S  0.65404453  0.44362894  0.07606607    -0.32400
H998        H  0.64552289  0.46368022  0.04845401     0.29000
H999        H  0.66854998  0.05715326  0.19636455     0.29000
H1000       H  0.59905209  0.03496407  0.13212369     0.19600
H1001       H  0.68728445  0.45749698  0.13775069     0.19600
C1002       C  0.66749080  0.49517295  0.34247313    -0.06300
C1003       C  0.64613862  0.02048944  0.34552783    -0.17400
C1004       C  0.62168855  0.02003672  0.37002344     0.10900
C1005       C  0.61894150  0.49413938  0.39311349    -0.06200
C1006       C  0.64028059  0.46865917  0.38979285    -0.17400
C1007       C  0.66416564  0.46870663  0.36452204     0.11000
S1008       S  0.59399290  0.05254883  0.36912537    -0.32400
S1009       S  0.68960288  0.43437704  0.36174946    -0.32400
H1010       H  0.69572142  0.43650906  0.32601267     0.29000
H1011       H  0.56713808  0.03361261  0.37476832     0.29000
H1012       H  0.64819927  0.04053094  0.32813455     0.19600
H1013       H  0.63853152  0.44856668  0.40711547     0.19600
C1014       C  0.87652021  0.50215564  0.10730876    -0.06300
C1015       C  0.87402854  0.02856462  0.12937610    -0.17400
C1016       C  0.85075859  0.03028011  0.15513997     0.10900
C1017       C  0.82989872  0.50462778  0.15982321    -0.06200
C1018       C  0.83241857  0.47813994  0.13814763    -0.17400
C1019       C  0.85498527  0.47681150  0.11166246     0.11000
S1020       S  0.84895133  0.06578345  0.18110812    -0.32400
S1021       S  0.85370595  0.44281198  0.08353126    -0.32400
H1022       H  0.85411077  0.46100937  0.05296745     0.29000
H1023       H  0.81630953  0.06464680  0.18804844     0.29000
H1024       H  0.89024603  0.04819285  0.12656269     0.19600
H1025       H  0.81620078  0.45855403  0.14154911     0.19600
C1026       C  0.83289953  0.50260580  0.34015979    -0.06300
C1027       C  0.84671040  0.47387269  0.35037930    -0.17400
C1028       C  0.87143151  0.47298768  0.37453342     0.10900
C1029       C  0.88129572  0.50132871  0.39101230    -0.06200
C1030       C  0.86744092  0.03009728  0.38034346    -0.17400
C1031       C  0.84409430  0.03109742  0.35463821     0.11000
S1032       S  0.89016396  0.43513921  0.38149006    -0.32400
S1033       S  0.82926411  0.06946737  0.34182756    -0.32400
H1034       H  0.82192435  0.06137170  0.30744084     0.29000
H1035       H  0.92106435  0.44733668  0.37909173     0.29000
H1036       H  0.83880754  0.45202441  0.33851449     0.19600
H1037       H  0.87471541  0.05220691  0.39194337     0.19600
C1038       C  0.99997935  0.11647557  0.11141918    -0.06300
C1039       C  0.97368691  0.13705492  0.11202086    -0.17400
C1040       C  0.97070080  0.16088876  0.13709191     0.10900
C1041       C  0.99518183  0.16537689  0.16147685    -0.06200
C1042       C  0.52112668  0.14452912  0.16139296    -0.17400
C1043       C  0.52332080  0.11966413  0.13750128     0.11000
S1044       S  0.93502165  0.18450371  0.13671437    -0.32400
S1045       S  0.55509994  0.09170483  0.14377642    -0.32400
H1046       H  0.53684882  0.06501786  0.13524786     0.29000
H1047       H  0.93451464  0.19106870  0.17242853     0.29000
H1048       H  0.95516973  0.13459045  0.09279852     0.19600
H1049       H  0.53942001  0.14714546  0.18086765     0.19600
C1050       C  0.00053435  0.11945922  0.39571419    -0.06300
C1051       C  0.52468150  0.11978825  0.37071585    -0.17400
C1052       C  0.52480377  0.14202936  0.34389141     0.10900
C1053       C  0.99973788  0.16410314  0.34130921    -0.06200
C1054       C  0.97526555  0.16350381  0.36584632    -0.17400
C1055       C  0.97569261  0.14200255  0.39335331     0.11000
S1056       S  0.55773965  0.14108117  0.31410390    -0.32400
S1057       S  0.94501341  0.14625572  0.42554847    -0.32400
H1058       H  0.96589400  0.14351510  0.45381312     0.29000
H1059       H  0.55800093  0.17365598  0.30675904     0.29000
H1060       H  0.54378236  0.10270063  0.37214179     0.19600
H1061       H  0.95627305  0.18077680  0.36421394     0.19600
C1062       C  0.99654764  0.33202306  0.16360930    -0.06300
C1063       C  0.96852148  0.34898640  0.15744039    -0.17400
C1064       C  0.96783509  0.37471809  0.13461455     0.10900
C1065       C  0.99461587  0.38123890  0.11359326    -0.06200
C1066       C  0.52278158  0.36432927  0.12006514    -0.17400
C1067       C  0.52434124  0.34083775  0.14568582     0.11000
S1068       S  0.93347359  0.40002099  0.13715873    -0.32400
S1069       S  0.56246156  0.32305789  0.15422766    -0.32400
H1070       H  0.55680684  0.31582900  0.18924817     0.29000
H1071       H  0.95078053  0.42826257  0.13360897     0.29000
H1072       H  0.94746286  0.34332302  0.17224274     0.19600
H1073       H  0.54395079  0.36959069  0.10530870     0.19600
C1074       C  0.99609461  0.37439060  0.39727232    -0.06300
C1075       C  0.52294305  0.37247532  0.37580234    -0.17400
C1076       C  0.52553606  0.34934062  0.34993511     0.10900
C1077       C  0.00030975  0.32809690  0.34452821    -0.06200
C1078       C  0.97367438  0.32966552  0.36610464    -0.17400
C1079       C  0.97158508  0.35190343  0.39285093     0.11000
S1080       S  0.56158445  0.34814046  0.32484999    -0.32400
S1081       S  0.93820151  0.34829622  0.42164319    -0.32400
H1082       H  0.95620198  0.35288026  0.45189918     0.29000
H1083       H  0.56077512  0.31564170  0.31712338     0.29000
H1084       H  0.54216161  0.38911256  0.37922889     0.19600
H1085       H  0.95463683  0.31284064  0.36251955     0.19600
C1086       C  0.99503640  0.39970136  0.92390854     0.42300
N1087       N  0.51024304  0.43075471  0.96466672     0.01200
C1088       C  0.91593218  0.02996396  0.56406523    -0.06700
H1089       H  0.91569955  0.05450177  0.93090334     0.06700
C1090       C  0.53019762  0.08093365  0.93891399    -0.07000
Co1091     Co  0.95530391  0.45999798  0.50163081     0.74200
N1092       N  0.93528476  0.01806906  0.96350406    -0.26200
Co1093     Co  0.96100466  0.04156375  0.00172252     0.74100
C1094       C  0.00198316  0.09530936  0.92341936     0.42400
N1095       N  0.56555806  0.00847869  0.96378808     0.00800
N1096       N  0.98787351  0.06425932  0.96437949     0.00900
N1097       N  0.91283281  0.47655066  0.56344063    -0.47100
H1098       H  0.94258617  0.41277344  0.93327929     0.06700
N1099       N  0.93288097  0.48696368  0.96349429     0.01200
N1100       N  0.98777716  0.06383729  0.53992556     0.00900
C1101       C  0.50201885  0.09264354  0.58310223     0.42600
N1102       N  0.56348731  0.47727453  0.96410782    -0.25700
C1103       C  0.96660760  0.41695591  0.56556813    -0.06600
N1104       N  0.52075644  0.41066888  0.94087506    -0.46800
N1105       N  0.97674054  0.08214245  0.56508024    -0.47000
C1106       C  0.49402484  0.40421805  0.58421395     0.42300
N1107       N  0.93238074  0.48705945  0.53923885     0.01200
N1108       N  0.56347197  0.47756162  0.53943113    -0.25700
N1109       N  0.97914570  0.43358002  0.96439955    -0.26200
N1110       N  0.56578538  0.00870479  0.53946234     0.00800
H1111       H  0.58503075  0.44091194  0.57041025     0.06700
H1112       H  0.55497608  0.08349803  0.57129318     0.06800
N1113       N  0.93451753  0.01816820  0.53902067    -0.26200
N1114       N  0.51904439  0.06225233  0.96422007    -0.25800
N1115       N  0.50986943  0.43198259  0.54066289     0.01200
C1116       C  0.90473527  0.50184948  0.91991666     0.42600
C1117       C  0.58140017  0.46559944  0.93830230    -0.07100
N1118       N  0.51897056  0.06192368  0.53979652    -0.25800
H1119       H  0.55492036  0.08507695  0.93328292     0.06700
N1120       N  0.91454834  0.47635727  0.93822976    -0.47100
H1121       H  0.58485170  0.44076215  0.93255810     0.06700
C1122       C  0.59642171  0.99343183  0.58046094     0.42400
C1123       C  0.96743095  0.41538136  0.93912765    -0.06600
Co1124     Co  0.53721344  0.45381947  0.50222233     0.73800
N1125       N  0.58436661  0.01904141  0.93887297    -0.46800
C1126       C  0.90139105  0.00227562  0.58013091     0.42700
N1127       N  0.52000597  0.41415780  0.56672542    -0.46800
Co1128     Co  0.54291384  0.03581287  0.00176782     0.73900
C1129       C  0.53019181  0.07961638  0.56590960    -0.07100
C1130       C  0.91838527  0.02965410  0.93695758    -0.06700
N1131       N  0.97873744  0.43411277  0.53968106    -0.26200
N1132       N  0.97672760  0.08370455  0.94044520    -0.46900
H1133       H  0.91202228  0.05485098  0.56915789     0.06700
C1134       C  0.58174722  0.46576574  0.56468782    -0.07100
Cl1135     Cl  0.49914361  0.99780236  0.50178652    -0.50100
C1136       C  0.59497598  0.49340496  0.92133288     0.42500
H1137       H  0.94160218  0.41344786  0.56969011     0.06700
N1138       N  0.58530877  0.01923179  0.56367700    -0.46800
N1139       N  0.99984620  0.29629086  0.75308517    -0.36800
N1140       N  0.99882712  0.24673828  0.80584805    -0.57300
N1141       N  0.99809073  0.19877536  0.75144551    -0.36700
N1142       N  0.99444745  0.24838821  0.69864604    -0.57300
C1143       C  0.99548874  0.31392369  0.78204186     0.26800
C1144       C  0.99348200  0.31503601  0.72548022     0.26800
C1145       C  0.99279617  0.18057626  0.77970658     0.26800
C1146       C  0.99060101  0.18132883  0.72326211     0.26800
C1147       C  0.00498604  0.27192241  0.82630223     0.35400
C1148       C  0.00433708  0.22074175  0.82532478     0.35500
C1149       C  0.99853274  0.27430445  0.67849535     0.35400
C1150       C  0.99769659  0.22282216  0.67773052     0.35500
C1151       C  0.98659872  0.34434854  0.77279023    -0.22000
C1152       C  0.98563171  0.34517590  0.73722549    -0.23800
C1153       C  0.98200858  0.15109270  0.76937383    -0.22000
C1154       C  0.98063708  0.15155350  0.73374995    -0.22000
C1155       C  0.01411743  0.26192037  0.85901958    -0.23100
C1156       C  0.01380583  0.22947780  0.85837961    -0.23100
C1157       C  0.00361898  0.26507891  0.64442229    -0.23100
C1158       C  0.00340880  0.23255616  0.64401272    -0.23100
C1159       C  0.00078783  0.30386702  0.81655720    -0.18400
C1160       C  0.99631063  0.30618956  0.69005331    -0.18400
C1161       C  0.99421994  0.19083897  0.68827700    -0.18400
C1162       C  0.99916282  0.18924787  0.81441825    -0.18400
H1163       H  0.98181394  0.36413825  0.78986372     0.14500
H1164       H  0.98014747  0.36597957  0.72204758     0.14500
H1165       H  0.97605086  0.13119536  0.78577722     0.14500
H1166       H  0.97332061  0.13207819  0.71740658     0.14500
H1167       H  0.02029367  0.27648789  0.88107036     0.12800
H1168       H  0.01969028  0.21410060  0.87988845     0.12800
H1169       H  0.00705904  0.28013329  0.62206408     0.12800
H1170       H  0.00674010  0.21779857  0.62135643     0.12800
H1171       H  0.00835803  0.27334281  0.75214727     0.26000
H1172       H  0.00816416  0.22104299  0.75127325     0.26000
N1173       N  0.70007917  0.50079432  0.75202106    -0.36800
N1174       N  0.74823261  0.50134726  0.69789216    -0.57300
N1175       N  0.79765051  0.50456788  0.75074108    -0.36700
N1176       N  0.74978917  0.49924415  0.80488599    -0.57300
C1177       C  0.68224363  0.49404870  0.72385154     0.26800
C1178       C  0.68302892  0.49278308  0.78036061     0.26800
C1179       C  0.81534303  0.49948235  0.72203066     0.26800
C1180       C  0.81621289  0.49841300  0.77850439     0.26800
C1181       C  0.72219593  0.50599053  0.67817642     0.35400
C1182       C  0.77340427  0.50785516  0.67749356     0.35500
C1183       C  0.72413654  0.50246249  0.82561320     0.35400
C1184       C  0.77545888  0.50478436  0.82491453     0.35500
C1185       C  0.65334741  0.48191742  0.73443340    -0.22000
C1186       C  0.65381083  0.48118627  0.77008269    -0.22000
C1187       C  0.84565562  0.49036017  0.73161495    -0.22000
C1188       C  0.84626765  0.48984248  0.76722537    -0.22000
C1189       C  0.73091498  0.51528967  0.64504783    -0.23100
C1190       C  0.76336130  0.51636348  0.64459260    -0.23100
C1191       C  0.73355728  0.50973004  0.85907524    -0.23100
C1192       C  0.76605917  0.51109599  0.85866415    -0.23100
C1193       C  0.69076397  0.49995009  0.68894142    -0.18400
C1194       C  0.69246968  0.49695969  0.81528602    -0.18400
C1195       C  0.80729627  0.50213480  0.81367318    -0.18400
C1196       C  0.80540656  0.50441559  0.68746203    -0.18400
H1197       H  0.63386010  0.47451892  0.71817181     0.14500
H1198       H  0.63475418  0.47305346  0.78656754     0.14500
H1199       H  0.86543280  0.48498795  0.71471811     0.14500
H1200       H  0.86671308  0.48407363  0.78289648     0.14500
H1201       H  0.71552986  0.52055557  0.62336500     0.12800
H1202       H  0.77790577  0.52258989  0.62252591     0.12800
H1203       H  0.71859528  0.51325889  0.88154800     0.12800
H1204       H  0.78103308  0.51584369  0.88079439     0.12800
H1205       H  0.72192698  0.51187920  0.75200102     0.26000
H1206       H  0.77477747  0.51349345  0.75135070     0.26000
C1207       C  0.62070824  0.49433202  0.60791556    -0.06300
C1208       C  0.61836839  0.01805538  0.63322582    -0.17400
C1209       C  0.64072891  0.02055926  0.65980323     0.10900
C1210       C  0.66576374  0.49832066  0.66176845    -0.06200
C1211       C  0.66786662  0.47432527  0.63668359    -0.17400
C1212       C  0.64620301  0.47256179  0.60938034     0.11000
S1213       S  0.63609960  0.05284520  0.69000373    -0.32400
S1214       S  0.65404514  0.44363000  0.57606523    -0.32400
H1215       H  0.64552304  0.46368149  0.54845350     0.29000
H1216       H  0.66855138  0.05715426  0.69636261     0.29000
H1217       H  0.59905291  0.03496538  0.63212259     0.19600
H1218       H  0.68728478  0.45749795  0.63775039     0.19600
C1219       C  0.66749088  0.49517327  0.84247336    -0.06300
C1220       C  0.64613840  0.02048949  0.84552766    -0.17400
C1221       C  0.62168834  0.02003659  0.87002329     0.10900
C1222       C  0.61894168  0.49413963  0.89311387    -0.06200
C1223       C  0.64028090  0.46865942  0.88979323    -0.17400
C1224       C  0.66416585  0.46870699  0.86452229     0.11000
S1225       S  0.59399195  0.05254810  0.86912496    -0.32400
S1226       S  0.68960323  0.43437755  0.86174959    -0.32400
H1227       H  0.69572142  0.43650950  0.82601274     0.29000
H1228       H  0.56713746  0.03361150  0.87476843     0.29000
H1229       H  0.64819886  0.04053088  0.82813420     0.19600
H1230       H  0.63853202  0.44856689  0.90711583     0.19600
C1231       C  0.87652021  0.50215601  0.60730859    -0.06300
C1232       C  0.87402900  0.02856447  0.62937667    -0.17400
C1233       C  0.85075900  0.03027985  0.65514054     0.10900
C1234       C  0.82989856  0.50462856  0.65982289    -0.06200
C1235       C  0.83241778  0.47814109  0.63814675    -0.17400
C1236       C  0.85498449  0.47681245  0.61166160     0.11000
S1237       S  0.84895251  0.06578258  0.68110978    -0.32400
S1238       S  0.85370421  0.44281347  0.58352956    -0.32400
H1239       H  0.85411015  0.46101136  0.55296611     0.29000
H1240       H  0.81631062  0.06464641  0.68804968     0.29000
H1241       H  0.89024689  0.04819249  0.62656361     0.19600
H1242       H  0.81619932  0.45855568  0.64154778     0.19600
C1243       C  0.83289958  0.50260582  0.84015939    -0.06300
C1244       C  0.84671003  0.47387260  0.85037932    -0.17400
C1245       C  0.87143107  0.47298758  0.87453359     0.10900
C1246       C  0.88129585  0.50132867  0.89101203    -0.06200
C1247       C  0.86744128  0.03009699  0.88034309    -0.17400
C1248       C  0.84409462  0.03109709  0.85463781     0.11000
S1249       S  0.89016253  0.43513879  0.88149096    -0.32400
S1250       S  0.82926475  0.06946710  0.84182689    -0.32400
H1251       H  0.82192444  0.06137133  0.80744034     0.29000
H1252       H  0.92106316  0.44733552  0.87909212     0.29000
H1253       H  0.83880658  0.45202418  0.83851529     0.19600
H1254       H  0.87471576  0.05220662  0.89194309     0.19600
C1255       C  0.99997937  0.11647583  0.61141934    -0.06300
C1256       C  0.97368683  0.13705502  0.61202113    -0.17400
C1257       C  0.97070066  0.16088885  0.63709218     0.10900
C1258       C  0.99518169  0.16537717  0.66147699    -0.06200
C1259       C  0.52112654  0.14452936  0.66139320    -0.17400
C1260       C  0.52332075  0.11966440  0.63750154     0.11000
S1261       S  0.93502146  0.18450372  0.63671476    -0.32400
S1262       S  0.55510026  0.09170551  0.64377659    -0.32400
H1263       H  0.53684941  0.06501832  0.63524824     0.29000
H1264       H  0.93451452  0.19106808  0.67242907     0.29000
H1265       H  0.95516955  0.13459028  0.59279898     0.19600
H1266       H  0.53941979  0.14714561  0.68086798     0.19600
C1267       C  0.00053419  0.11945924  0.89571429    -0.06300
C1268       C  0.52468063  0.11978818  0.87071519    -0.17400
C1269       C  0.52480263  0.14202914  0.84389069     0.10900
C1270       C  0.99973687  0.16410305  0.84130924    -0.06200
C1271       C  0.97526477  0.16350383  0.86584665    -0.17400
C1272       C  0.97569226  0.14200263  0.89335369     0.11000
S1273       S  0.55773795  0.14108023  0.81410238    -0.32400
S1274       S  0.94501335  0.14625589  0.92554926    -0.32400
H1275       H  0.96589410  0.14351501  0.95381373     0.29000
H1276       H  0.55799962  0.17365508  0.80675793     0.29000
H1277       H  0.54378137  0.10270044  0.87214067     0.19600
H1278       H  0.95627219  0.18077680  0.86421445     0.19600
C1279       C  0.99654782  0.33202326  0.66360939    -0.06300
C1280       C  0.96852178  0.34898676  0.65744058    -0.17400
C1281       C  0.96783538  0.37471833  0.63461471     0.10900
C1282       C  0.99461624  0.38123909  0.61359331    -0.06200
C1283       C  0.52278183  0.36432905  0.62006481    -0.17400
C1284       C  0.52434150  0.34083759  0.64568555     0.11000
S1285       S  0.93347363  0.40002106  0.63715904    -0.32400
S1286       S  0.56246186  0.32305745  0.65422678    -0.32400
H1287       H  0.55680723  0.31582830  0.68924721     0.29000
H1288       H  0.95078008  0.42826292  0.63360923     0.29000
H1289       H  0.94746304  0.34332334  0.67224277     0.19600
H1290       H  0.54395092  0.36959005  0.60530794     0.19600
C1291       C  0.99609460  0.37439073  0.89727240    -0.06300
C1292       C  0.52294312  0.37247533  0.87580223    -0.17400
C1293       C  0.52553608  0.34934053  0.84993510     0.10900
C1294       C  0.00030933  0.32809697  0.84452842    -0.06200
C1295       C  0.97367429  0.32966536  0.86610536    -0.17400
C1296       C  0.97158523  0.35190327  0.89285158     0.11000
S1297       S  0.56158439  0.34814019  0.82484988    -0.32400
S1298       S  0.93820213  0.34829577  0.92164443    -0.32400
H1299       H  0.95620291  0.35288032  0.95190010     0.29000
H1300       H  0.56077553  0.31564125  0.81712398     0.29000
H1301       H  0.54216189  0.38911224  0.87922906     0.19600
H1302       H  0.95463698  0.31284008  0.86252101     0.19600
C1303       C  0.99503606  0.89970142  0.42390854     0.42300
N1304       N  0.51024286  0.93075492  0.46466659     0.01200
C1305       C  0.91593179  0.52996394  0.06406489    -0.06700
H1306       H  0.91569881  0.55450164  0.43090407     0.06700
C1307       C  0.53019734  0.58093358  0.43891381    -0.07000
Co1308     Co  0.95530395  0.95999802  0.00163081     0.74200
N1309       N  0.93528464  0.51806895  0.46350419    -0.26200
Co1310     Co  0.96100464  0.54156370  0.50172257     0.74100
C1311       C  0.00198320  0.59530902  0.42341904     0.42400
N1312       N  0.56555776  0.50847869  0.46378788     0.00800
N1313       N  0.98787352  0.56425922  0.46437940     0.00900
N1314       N  0.91283319  0.97655083  0.06344094    -0.47100
H1315       H  0.94258578  0.91277357  0.43327950     0.06700
N1316       N  0.93288087  0.98696411  0.46349445     0.01200
N1317       N  0.98777691  0.56383707  0.03992533     0.00900
C1318       C  0.50201886  0.59264356  0.08310203     0.42600
N1319       N  0.56348712  0.97727460  0.46410755    -0.25700
C1320       C  0.96660750  0.91695572  0.06556795    -0.06600
N1321       N  0.52075614  0.91066905  0.44087491    -0.46800
N1322       N  0.97674012  0.58214218  0.06507995    -0.47000
C1323       C  0.49402480  0.90421832  0.08421413     0.42300
N1324       N  0.93238084  0.98705964  0.03923890     0.01200
N1325       N  0.56347223  0.97756178  0.03943132    -0.25700
N1326       N  0.97914538  0.93358018  0.46439951    -0.26200
N1327       N  0.56578537  0.50870486  0.03946249     0.00800
H1328       H  0.58503170  0.94091214  0.07040973     0.06700
H1329       H  0.55497642  0.58349833  0.07129282     0.06800
N1330       N  0.93451736  0.51816812  0.03902048    -0.26200
N1331       N  0.51904413  0.56225232  0.46421995    -0.25800
N1332       N  0.50986955  0.93198276  0.04066314     0.01200
C1333       C  0.90473536  0.00185006  0.41991678     0.42600
C1334       C  0.58139995  0.96559942  0.43830204    -0.07100
N1335       N  0.51897070  0.56192373  0.03979652    -0.25800
H1336       H  0.55492007  0.58507653  0.43328231     0.06700
N1337       N  0.91454832  0.97635778  0.43822984    -0.47100
H1338       H  0.58485142  0.94076212  0.43255780     0.06700
C1339       C  0.59642173  0.49343187  0.08046104     0.42400
C1340       C  0.96743062  0.91538150  0.43912767    -0.06600
Co1341     Co  0.53721373  0.95381951  0.00222258     0.73800
N1342       N  0.58436640  0.51904137  0.43887282    -0.46800
C1343       C  0.90139085  0.50227536  0.08013058     0.42700
N1344       N  0.52000603  0.91415800  0.06672571    -0.46800
Co1345     Co  0.54291362  0.53581282  0.50176764     0.73900
C1346       C  0.53019208  0.57961640  0.06590959    -0.07100
C1347       C  0.91838489  0.52965394  0.43695792    -0.06700
N1348       N  0.97873743  0.93411275  0.03968105    -0.26200
N1349       N  0.97672760  0.58370433  0.44044500    -0.46900
H1350       H  0.91202152  0.55485097  0.06915730     0.06700
C1351       C  0.58174764  0.96576596  0.06468786    -0.07100
Cl1352     Cl  0.49914372  0.49780227  0.00178653    -0.50100
C1353       C  0.59497572  0.99340490  0.42133257     0.42500
H1354       H  0.94160209  0.91344717  0.06968953     0.06700
N1355       N  0.58530877  0.51923182  0.06367717    -0.46800
N1356       N  0.99984613  0.79629081  0.25308513    -0.36800
N1357       N  0.99882724  0.74673804  0.30584781    -0.57300
N1358       N  0.99809092  0.69877497  0.25144536    -0.36700
N1359       N  0.99444732  0.74838787  0.19864583    -0.57300
C1360       C  0.99548871  0.81392369  0.28204186     0.26800
C1361       C  0.99348180  0.81503600  0.22548019     0.26800
C1362       C  0.99279619  0.68057603  0.27970648     0.26800
C1363       C  0.99060080  0.68132865  0.22326205     0.26800
C1364       C  0.00498612  0.77192218  0.32630201     0.35400
C1365       C  0.00433741  0.72074152  0.32532448     0.35500
C1366       C  0.99853265  0.77430419  0.17849528     0.35400
C1367       C  0.99769641  0.72282177  0.17773023     0.35500
C1368       C  0.98659861  0.84434862  0.27279035    -0.22000
C1369       C  0.98563155  0.84517601  0.23722549    -0.23800
C1370       C  0.98200832  0.65109251  0.26937379    -0.22000
C1371       C  0.98063658  0.65155348  0.23374996    -0.22000
C1372       C  0.01411760  0.76192014  0.35901928    -0.23100
C1373       C  0.01380607  0.72947752  0.35837928    -0.23100
C1374       C  0.00361888  0.76507861  0.14442216    -0.23100
C1375       C  0.00340859  0.73255575  0.14401231    -0.23100
C1376       C  0.00078777  0.80386685  0.31655713    -0.18400
C1377       C  0.99631044  0.80618938  0.19005331    -0.18400
C1378       C  0.99421961  0.69083863  0.18827687    -0.18400
C1379       C  0.99916300  0.68924767  0.31441806    -0.18400
H1380       H  0.98181389  0.86413817  0.28986410     0.14500
H1381       H  0.98014764  0.86597972  0.22204748     0.14500
H1382       H  0.97605044  0.63119506  0.28577695     0.14500
H1383       H  0.97331965  0.63207840  0.21740655     0.14500
H1384       H  0.02029389  0.77648782  0.38106991     0.12800
H1385       H  0.01969078  0.71410010  0.37988784     0.12800
H1386       H  0.00705908  0.78013320  0.12206416     0.12800
H1387       H  0.00673936  0.71779821  0.12135583     0.12800
H1388       H  0.00835785  0.77334285  0.25214719     0.26000
H1389       H  0.00816496  0.72104267  0.25127293     0.26000
N1390       N  0.70007999  0.00079461  0.25202117    -0.36800
N1391       N  0.74823296  0.00134779  0.19789210    -0.57300
N1392       N  0.79765128  0.00456816  0.25074146    -0.36700
N1393       N  0.74978931  0.99924437  0.30488626    -0.57300
C1394       C  0.68224419  0.99404876  0.22385155     0.26800
C1395       C  0.68302929  0.99278294  0.28036060     0.26800
C1396       C  0.81534334  0.99948314  0.22203117     0.26800
C1397       C  0.81621314  0.99841386  0.27850492     0.26800
C1398       C  0.72219627  0.00599090  0.17817625     0.35400
C1399       C  0.77340469  0.00785554  0.17749354     0.35500
C1400       C  0.72413659  0.00246229  0.32561331     0.35400
C1401       C  0.77545894  0.00478468  0.32491503     0.35500
C1402       C  0.65334824  0.98191729  0.23443324    -0.22000
C1403       C  0.65381159  0.98118599  0.27008244    -0.22000
C1404       C  0.84565613  0.99036150  0.23161571    -0.22000
C1405       C  0.84626823  0.98984379  0.26722611    -0.22000
C1406       C  0.73091533  0.01528974  0.14504744    -0.23100
C1407       C  0.76336179  0.01636366  0.14459228    -0.23100
C1408       C  0.73355734  0.00972965  0.35907532    -0.23100
C1409       C  0.76605925  0.01109598  0.35866478    -0.23100
C1410       C  0.69076446  0.99995024  0.18894143    -0.18400
C1411       C  0.69246980  0.99695941  0.31528607    -0.18400
C1412       C  0.80729640  0.00213543  0.31367370    -0.18400
C1413       C  0.80540702  0.00441610  0.18746234    -0.18400
H1414       H  0.63386094  0.97451880  0.21817160     0.14500
H1415       H  0.63475511  0.97305252  0.28656714     0.14500
H1416       H  0.86543341  0.98498993  0.21471888     0.14500
H1417       H  0.86671372  0.98407518  0.28289716     0.14500
H1418       H  0.71553006  0.02055537  0.12336465     0.12800
H1419       H  0.77790636  0.02258981  0.12252555     0.12800
H1420       H  0.71859496  0.01325808  0.38154779     0.12800
H1421       H  0.78103293  0.01584391  0.38079522     0.12800
H1422       H  0.72192648  0.01187905  0.25200127     0.26000
H1423       H  0.77477629  0.01349377  0.25135090     0.26000
C1424       C  0.62070873  0.99433216  0.10791546    -0.06300
C1425       C  0.61836859  0.51805495  0.13322602    -0.17400
C1426       C  0.64072911  0.52055846  0.15980351     0.10900
C1427       C  0.66576402  0.99832079  0.16176857    -0.06200
C1428       C  0.66786710  0.97432586  0.13668332    -0.17400
C1429       C  0.64620362  0.97256234  0.10937999     0.11000
S1430       S  0.63610005  0.55284438  0.19000413    -0.32400
S1431       S  0.65404626  0.94363098  0.07606463    -0.32400
H1432       H  0.64552365  0.96368241  0.04845304     0.29000
H1433       H  0.66855186  0.55715325  0.19636302     0.29000
H1434       H  0.59905302  0.53496491  0.13212309     0.19600
H1435       H  0.68728551  0.95749889  0.13774987     0.19600
C1436       C  0.66749075  0.99517290  0.34247331    -0.06300
C1437       C  0.64613876  0.52048960  0.34552784    -0.17400
C1438       C  0.62168859  0.52003670  0.37002341     0.10900
C1439       C  0.61894151  0.99413943  0.39311374    -0.06200
C1440       C  0.64028074  0.96865916  0.38979345    -0.17400
C1441       C  0.66416580  0.96870673  0.36452261     0.11000
S1442       S  0.59399251  0.55254835  0.36912544    -0.32400
S1443       S  0.68960336  0.93437742  0.36175046    -0.32400
H1444       H  0.69572176  0.93650885  0.32601361     0.29000
H1445       H  0.56713796  0.53361169  0.37476832     0.29000
H1446       H  0.64819945  0.54053116  0.32813468     0.19600
H1447       H  0.63853208  0.94856686  0.40711647     0.19600
C1448       C  0.87652078  0.00215601  0.10730922    -0.06300
C1449       C  0.87402830  0.52856391  0.12937611    -0.17400
C1450       C  0.85075845  0.53027910  0.15514009     0.10900
C1451       C  0.82989891  0.00462891  0.15982330    -0.06200
C1452       C  0.83241912  0.97814072  0.13814829    -0.17400
C1453       C  0.85498589  0.97681195  0.11166314     0.11000
S1454       S  0.84895149  0.56578212  0.18110876    -0.32400
S1455       S  0.85370687  0.94281213  0.08353221    -0.32400
H1456       H  0.85411110  0.96100936  0.05296825     0.29000
H1457       H  0.81630974  0.56464509  0.18804913     0.29000
H1458       H  0.89024568  0.54819227  0.12656271     0.19600
H1459       H  0.81620121  0.95855498  0.14155005     0.19600
C1460       C  0.83289950  0.00260661  0.34015997    -0.06300
C1461       C  0.84671062  0.97387356  0.35037921    -0.17400
C1462       C  0.87143185  0.97298844  0.37453319     0.10900
C1463       C  0.88129591  0.00132929  0.39101224    -0.06200
C1464       C  0.86744108  0.53009683  0.38034322    -0.17400
C1465       C  0.84409457  0.53109678  0.35463779     0.11000
S1466       S  0.89016461  0.93514007  0.38148929    -0.32400
S1467       S  0.82926472  0.56946664  0.34182653    -0.32400
H1468       H  0.82192491  0.56137073  0.30743989     0.29000
H1469       H  0.92106481  0.94733808  0.37909133     0.29000
H1470       H  0.83880780  0.95202539  0.33851420     0.19600
H1471       H  0.87471556  0.55220653  0.39194315     0.19600
C1472       C  0.99997866  0.61647550  0.11141923    -0.06300
C1473       C  0.97368620  0.63705490  0.11202072    -0.17400
C1474       C  0.97070024  0.66088870  0.13709188     0.10900
C1475       C  0.99518135  0.66537681  0.16147696    -0.06200
C1476       C  0.52112617  0.64452913  0.16139295    -0.17400
C1477       C  0.52332043  0.61966422  0.13750135     0.11000
S1478       S  0.93502114  0.68450381  0.13671452    -0.32400
S1479       S  0.55510002  0.59170539  0.14377658    -0.32400
H1480       H  0.53684932  0.56501807  0.13524830     0.29000
H1481       H  0.93451415  0.69106862  0.17242872     0.29000
H1482       H  0.95516882  0.63459036  0.09279854     0.19600
H1483       H  0.53941953  0.64714536  0.18086759     0.19600
C1484       C  0.00053423  0.61945898  0.39571394    -0.06300
C1485       C  0.52468074  0.61978825  0.37071543    -0.17400
C1486       C  0.52480269  0.64202940  0.34389106     0.10900
C1487       C  0.99973704  0.66410298  0.34130905    -0.06200
C1488       C  0.97526460  0.66350349  0.36584606    -0.17400
C1489       C  0.97569204  0.64200214  0.39335300     0.11000
S1490       S  0.55773830  0.64108107  0.31410313    -0.32400
S1491       S  0.94501271  0.64625491  0.42554806    -0.32400
H1492       H  0.96589334  0.64351456  0.45381268     0.29000
H1493       H  0.55799948  0.67365586  0.30675827     0.29000
H1494       H  0.54378155  0.60270050  0.37214091     0.19600
H1495       H  0.95627178  0.68077620  0.36421355     0.19600
C1496       C  0.99654754  0.83202309  0.16360944    -0.06300
C1497       C  0.96852141  0.84898642  0.15744047    -0.17400
C1498       C  0.96783509  0.87471805  0.13461455     0.10900
C1499       C  0.99461601  0.88123884  0.11359319    -0.06200
C1500       C  0.52278170  0.86432943  0.12006519    -0.17400
C1501       C  0.52434107  0.84083787  0.14568587     0.11000
S1502       S  0.93347346  0.90002088  0.13715857    -0.32400
S1503       S  0.56246121  0.82305769  0.15422748    -0.32400
H1504       H  0.55680634  0.81582902  0.18924799     0.29000
H1505       H  0.95078031  0.92826250  0.13360883     0.29000
H1506       H  0.94746276  0.84332301  0.17224280     0.19600
H1507       H  0.54395111  0.86959092  0.10530906     0.19600
C1508       C  0.99609426  0.87439078  0.39727237    -0.06300
C1509       C  0.52294224  0.87247598  0.37580169    -0.17400
C1510       C  0.52553511  0.84934113  0.34993454     0.10900
C1511       C  0.00030929  0.82809680  0.34452846    -0.06200
C1512       C  0.97367403  0.82966552  0.36610506    -0.17400
C1513       C  0.97158480  0.85190349  0.39285123     0.11000
S1514       S  0.56158316  0.84814093  0.32484875    -0.32400
S1515       S  0.93820132  0.84829620  0.42164358    -0.32400
H1516       H  0.95620190  0.85288044  0.45189944     0.29000
H1517       H  0.56077423  0.81564204  0.31712254     0.29000
H1518       H  0.54216080  0.88911322  0.37922815     0.19600
H1519       H  0.95463657  0.81284047  0.36252041     0.19600
C1520       C  0.99503612  0.89970079  0.92390888     0.42300
N1521       N  0.51024335  0.93075453  0.96466692     0.01200
C1522       C  0.91593207  0.52996356  0.56406484    -0.06700
H1523       H  0.91569894  0.55450165  0.93090375     0.06700
C1524       C  0.53019763  0.58093351  0.93891419    -0.07000
Co1525     Co  0.95530377  0.95999830  0.50163090     0.74200
N1526       N  0.93528466  0.51806902  0.96350408    -0.26200
Co1527     Co  0.96100456  0.54156379  0.00172253     0.74100
C1528       C  0.00198335  0.59530902  0.92341915     0.42400
N1529       N  0.56555793  0.50847890  0.96378828     0.00800
N1530       N  0.98787354  0.56425924  0.96437947     0.00900
N1531       N  0.91283280  0.97655100  0.56344087    -0.47100
H1532       H  0.94258555  0.91277307  0.93327966     0.06700
N1533       N  0.93288101  0.98696372  0.96349428     0.01200
N1534       N  0.98777710  0.56383708  0.53992531     0.00900
C1535       C  0.50201898  0.59264374  0.58310166     0.42600
N1536       N  0.56348745  0.97727430  0.96410762    -0.25700
C1537       C  0.96660742  0.91695599  0.56556798    -0.06600
N1538       N  0.52075676  0.91066860  0.94087534    -0.46800
N1539       N  0.97674037  0.58214233  0.56507986    -0.47000
C1540       C  0.49402476  0.90421813  0.58421383     0.42300
N1541       N  0.93238066  0.98705980  0.53923905     0.01200
N1542       N  0.56347197  0.97756185  0.53943121    -0.25700
N1543       N  0.97914540  0.93357976  0.96439948    -0.26200
N1544       N  0.56578535  0.50870460  0.53946217     0.00800
H1545       H  0.58503108  0.94091211  0.57040979     0.06700
H1546       H  0.55497614  0.58349811  0.57129220     0.06800
N1547       N  0.93451757  0.51816782  0.53902042    -0.26200
N1548       N  0.51904424  0.56225237  0.96422027    -0.25800
N1549       N  0.50986935  0.93198274  0.54066287     0.01200
C1550       C  0.90473560  0.00184965  0.91991651     0.42600
C1551       C  0.58140031  0.96559918  0.93830206    -0.07100
N1552       N  0.51897051  0.56192353  0.53979612    -0.25800
H1553       H  0.55492045  0.58507605  0.93328292     0.06700
N1554       N  0.91454846  0.97635739  0.93822967    -0.47100
H1555       H  0.58485218  0.94076192  0.93255794     0.06700
C1556       C  0.59642164  0.49343170  0.58046082     0.42400
C1557       C  0.96743044  0.91538092  0.93912782    -0.06600
Co1558     Co  0.53721342  0.95381972  0.50222235     0.73800
N1559       N  0.58436663  0.51904164  0.93887330    -0.46800
C1560       C  0.90139090  0.50227528  0.58013050     0.42700
N1561       N  0.52000591  0.91415792  0.56672537    -0.46800
Co1562     Co  0.54291373  0.53581300  0.00176796     0.73900
C1563       C  0.53019183  0.57961631  0.56590906    -0.07100
C1564       C  0.91838498  0.52965398  0.93695772    -0.06700
N1565       N  0.97873729  0.93411293  0.53968100    -0.26200
N1566       N  0.97672769  0.58370429  0.94044497    -0.46900
H1567       H  0.91202175  0.55485057  0.56915703     0.06700
C1568       C  0.58174718  0.96576594  0.56468789    -0.07100
Cl1569     Cl  0.49914363  0.49780214  0.50178639    -0.50100
C1570       C  0.59497592  0.99340470  0.92133255     0.42500
H1571       H  0.94160201  0.91344757  0.56968962     0.06700
N1572       N  0.58530870  0.51923165  0.56367682    -0.46800
N1573       N  0.99984663  0.79629048  0.75308491    -0.36800
N1574       N  0.99882795  0.74673802  0.80584770    -0.57300
N1575       N  0.99809189  0.69877526  0.75144519    -0.36700
N1576       N  0.99444783  0.74838814  0.69864563    -0.57300
C1577       C  0.99548920  0.81392355  0.78204176     0.26800
C1578       C  0.99348222  0.81503593  0.72548005     0.26800
C1579       C  0.99279714  0.68057583  0.77970637     0.26800
C1580       C  0.99060161  0.68132857  0.72326183     0.26800
C1581       C  0.00498687  0.77192216  0.82630188     0.35400
C1582       C  0.00433821  0.72074150  0.82532437     0.35500
C1583       C  0.99853304  0.77430452  0.67849484     0.35400
C1584       C  0.99769693  0.72282212  0.67773018     0.35500
C1585       C  0.98659931  0.84434833  0.77279029    -0.22000
C1586       C  0.98563218  0.84517565  0.73722554    -0.23800
C1587       C  0.98200938  0.65109237  0.76937370    -0.22000
C1588       C  0.98063763  0.65155344  0.73374982    -0.22000
C1589       C  0.01411855  0.76192017  0.85901909    -0.23100
C1590       C  0.01380722  0.72947755  0.85837908    -0.23100
C1591       C  0.00361923  0.76507932  0.64442152    -0.23100
C1592       C  0.00340899  0.73255640  0.64401231    -0.23100
C1593       C  0.00078845  0.80386672  0.81655698    -0.18400
C1594       C  0.99631075  0.80618945  0.69005315    -0.18400
C1595       C  0.99422030  0.69083888  0.68827669    -0.18400
C1596       C  0.99916393  0.68924766  0.81441794    -0.18400
H1597       H  0.98181454  0.86413804  0.78986380     0.14500
H1598       H  0.98014833  0.86597945  0.72204768     0.14500
H1599       H  0.97605148  0.63119485  0.78577683     0.14500
H1600       H  0.97332073  0.63207833  0.71740645     0.14500
H1601       H  0.02029507  0.77648791  0.88106958     0.12800
H1602       H  0.01969235  0.71410020  0.87988759     0.12800
H1603       H  0.00705935  0.78013388  0.62206335     0.12800
H1604       H  0.00673961  0.71779854  0.62135615     0.12800
H1605       H  0.00835825  0.77334380  0.75214684     0.26000
H1606       H  0.00816546  0.72104126  0.75127275     0.26000
N1607       N  0.70007951  0.00079465  0.75202096    -0.36800
N1608       N  0.74823264  0.00134823  0.69789206    -0.57300
N1609       N  0.79765091  0.00456823  0.75074138    -0.36700
N1610       N  0.74978935  0.99924458  0.80488617    -0.57300
C1611       C  0.68224402  0.99404917  0.72385133     0.26800
C1612       C  0.68302922  0.99278323  0.78036040     0.26800
C1613       C  0.81534290  0.99948291  0.72203099     0.26800
C1614       C  0.81621301  0.99841335  0.77850472     0.26800
C1615       C  0.72219596  0.00599141  0.67817616     0.35400
C1616       C  0.77340430  0.00785598  0.67749362     0.35500
C1617       C  0.72413666  0.00246276  0.82561319     0.35400
C1618       C  0.77545906  0.00478489  0.82491490     0.35500
C1619       C  0.65334797  0.98191777  0.73443295    -0.22000
C1620       C  0.65381133  0.98118640  0.77008214    -0.22000
C1621       C  0.84565542  0.99036050  0.73161542    -0.22000
C1622       C  0.84626788  0.98984269  0.76722580    -0.22000
C1623       C  0.73091484  0.01529040  0.64504747    -0.23100
C1624       C  0.76336123  0.01636422  0.64459262    -0.23100
C1625       C  0.73355753  0.00973035  0.85907520    -0.23100
C1626       C  0.76605947  0.01109653  0.85866466    -0.23100
C1627       C  0.69076421  0.99995063  0.68894123    -0.18400
C1628       C  0.69246975  0.99695977  0.81528596    -0.18400
C1629       C  0.80729642  0.00213516  0.81367347    -0.18400
C1630       C  0.80540663  0.00441626  0.68746220    -0.18400
H1631       H  0.63386070  0.97451936  0.71817127     0.14500
H1632       H  0.63475461  0.97305323  0.78656663     0.14500
H1633       H  0.86543241  0.98498851  0.71471836     0.14500
H1634       H  0.86671349  0.98407373  0.78289660     0.14500
H1635       H  0.71552976  0.02055623  0.62336455     0.12800
H1636       H  0.77790589  0.02259041  0.62252605     0.12800
H1637       H  0.71859525  0.01325889  0.88154773     0.12800
H1638       H  0.78103318  0.01584421  0.88079516     0.12800
H1639       H  0.72192737  0.01187929  0.75200101     0.26000
H1640       H  0.77477670  0.01349426  0.75135095     0.26000
C1641       C  0.62070838  0.99433214  0.60791560    -0.06300
C1642       C  0.61836789  0.51805502  0.63322606    -0.17400
C1643       C  0.64072836  0.52055870  0.65980358     0.10900
C1644       C  0.66576392  0.99832111  0.66176836    -0.06200
C1645       C  0.66786645  0.97432552  0.63668378    -0.17400
C1646       C  0.64620278  0.97256176  0.60938068     0.11000
S1647       S  0.63609865  0.55284433  0.69000446    -0.32400
S1648       S  0.65404451  0.94362930  0.57606619    -0.32400
H1649       H  0.64552281  0.96368069  0.54845424     0.29000
H1650       H  0.66855029  0.55715335  0.69636414     0.29000
H1651       H  0.59905214  0.53496479  0.63212309     0.19600
H1652       H  0.68728449  0.95749814  0.63775062     0.19600
C1653       C  0.66749078  0.99517314  0.84247321    -0.06300
C1654       C  0.64613876  0.52048981  0.84552813    -0.17400
C1655       C  0.62168873  0.52003698  0.87002380     0.10900
C1656       C  0.61894156  0.99413931  0.89311359    -0.06200
C1657       C  0.64028100  0.96865921  0.88979337    -0.17400
C1658       C  0.66416597  0.96870690  0.86452242     0.11000
S1659       S  0.59399298  0.55254897  0.86912598    -0.32400
S1660       S  0.68960372  0.93437778  0.86174992    -0.32400
H1661       H  0.69572211  0.93650963  0.82601310     0.29000
H1662       H  0.56713832  0.53361246  0.87476872     0.29000
H1663       H  0.64819934  0.54053140  0.82813498     0.19600
H1664       H  0.63853229  0.94856679  0.90711622     0.19600
C1665       C  0.87652036  0.00215631  0.60730901    -0.06300
C1666       C  0.87402898  0.52856403  0.62937645    -0.17400
C1667       C  0.85075906  0.53027936  0.65514039     0.10900
C1668       C  0.82989852  0.00462895  0.65982306    -0.06200
C1669       C  0.83241786  0.97814123  0.63814715    -0.17400
C1670       C  0.85498467  0.97681263  0.61166207     0.11000
S1671       S  0.84895318  0.56578181  0.68110997    -0.32400
S1672       S  0.85370470  0.94281356  0.58353016    -0.32400
H1673       H  0.85411034  0.96101121  0.55296654     0.29000
H1674       H  0.81631134  0.56464587  0.68805011     0.29000
H1675       H  0.89024692  0.54819200  0.62656353     0.19600
H1676       H  0.81619933  0.95855582  0.64154803     0.19600
C1677       C  0.83289967  0.00260620  0.84015962    -0.06300
C1678       C  0.84671072  0.97387307  0.85037897    -0.17400
C1679       C  0.87143200  0.97298803  0.87453293     0.10900
C1680       C  0.88129611  0.00132893  0.89101199    -0.06200
C1681       C  0.86744161  0.53009683  0.88034246    -0.17400
C1682       C  0.84409512  0.53109683  0.85463698     0.11000
S1683       S  0.89016461  0.93513957  0.88148907    -0.32400
S1684       S  0.82926596  0.56946685  0.84182516    -0.32400
H1685       H  0.82192584  0.56137048  0.80743876     0.29000
H1686       H  0.92106494  0.94733722  0.87909124     0.29000
H1687       H  0.83880810  0.95202478  0.83851403     0.19600
H1688       H  0.87471650  0.55220659  0.89194191     0.19600
C1689       C  0.99997900  0.61647563  0.61141894    -0.06300
C1690       C  0.97368657  0.63705506  0.61202053    -0.17400
C1691       C  0.97070062  0.66088886  0.63709172     0.10900
C1692       C  0.99518176  0.66537701  0.66147662    -0.06200
C1693       C  0.52112679  0.64452932  0.66139265    -0.17400
C1694       C  0.52332101  0.61966440  0.63750106     0.11000
S1695       S  0.93502155  0.68450392  0.63671444    -0.32400
S1696       S  0.55510051  0.59170557  0.64377630    -0.32400
H1697       H  0.53684964  0.56501840  0.63524797     0.29000
H1698       H  0.93451451  0.69106865  0.67242866     0.29000
H1699       H  0.95516935  0.63459071  0.59279818     0.19600
H1700       H  0.53942019  0.64714560  0.68086720     0.19600
C1701       C  0.00053443  0.61945893  0.89571403    -0.06300
C1702       C  0.52468101  0.61978798  0.87071521    -0.17400
C1703       C  0.52480322  0.64202903  0.84389075     0.10900
C1704       C  0.99973781  0.66410291  0.84130905    -0.06200
C1705       C  0.97526552  0.66350358  0.86584628    -0.17400
C1706       C  0.97569270  0.64200234  0.89335330     0.11000
S1707       S  0.55773870  0.64108030  0.81410261    -0.32400
S1708       S  0.94501357  0.64625562  0.92554855    -0.32400
H1709       H  0.96589428  0.64351479  0.95381305     0.29000
H1710       H  0.55800008  0.67365505  0.80675745     0.29000
H1711       H  0.54378143  0.60269988  0.87214062     0.19600
H1712       H  0.95627309  0.68077667  0.86421415     0.19600
C1713       C  0.99654746  0.83202321  0.66360945    -0.06300
C1714       C  0.96852117  0.84898656  0.65744084    -0.17400
C1715       C  0.96783492  0.87471814  0.63461474     0.10900
C1716       C  0.99461585  0.88123891  0.61359324    -0.06200
C1717       C  0.52278189  0.86432943  0.62006472    -0.17400
C1718       C  0.52434154  0.84083795  0.64568547     0.11000
S1719       S  0.93347358  0.90002128  0.63715880    -0.32400
S1720       S  0.56246182  0.82305810  0.65422703    -0.32400
H1721       H  0.55680709  0.81582933  0.68924754     0.29000
H1722       H  0.95078031  0.92826300  0.63360909     0.29000
H1723       H  0.94746254  0.84332332  0.67224343     0.19600
H1724       H  0.54395103  0.86959072  0.60530802     0.19600
C1725       C  0.99609450  0.87439019  0.89727263    -0.06300
C1726       C  0.52294351  0.87247534  0.87580233    -0.17400
C1727       C  0.52553632  0.84934057  0.84993511     0.10900
C1728       C  0.00030984  0.82809669  0.84452831    -0.06200
C1729       C  0.97367463  0.82966535  0.86610492    -0.17400
C1730       C  0.97158516  0.85190312  0.89285126     0.11000
S1731       S  0.56158461  0.84814015  0.82484978    -0.32400
S1732       S  0.93820150  0.84829571  0.92164335    -0.32400
H1733       H  0.95620172  0.85287978  0.95189952     0.29000
H1734       H  0.56077548  0.81564117  0.81712415     0.29000
H1735       H  0.54216219  0.88911248  0.87922897     0.19600
H1736       H  0.95463721  0.81284039  0.86251990     0.19600
loop_ 
_geom_bond_atom_site_label_1 
_geom_bond_atom_site_label_2 
_geom_bond_distance 
_geom_bond_site_symmetry_2 
_ccdc_geom_bond_type 
C1           C38   1.461       .  S
C1          C206   1.483       .  S
C1          N887   1.352       .  A
N2           N19   1.325       .  A
N2          N892   1.318   1_455  A
N2         Co256   2.087       .  S
C3           C41   1.461       .  S
C3           N28   1.339       .  A
C3           H48   1.081       .  S
H4           C45   1.081       .  S
C5          C877   1.464       .  S
C5           N29   1.342       .  A
C5           H34   1.081       .  S
Co6          N46   2.080       .  S
Co6          N22   2.083       .  S
Co6         N241   2.076   1_554  S
Co6         N231   2.087   1_554  S
Co6       Cl1352   2.450       .  S
N7           C45   1.340       .  A
N7          N448   1.318   1_545  A
N7           Co8   2.085       .  S
Co8          N11   2.071       .  S
Co8         N245   2.075       .  S
Co8         N232   2.085       .  S
Co8       Cl1135   2.447   1_545  S
C9          C182   1.479       .  S
C9          C873   1.464       .  S
C9           N47   1.346       .  A
N10          N40   1.325       .  A
N10         N451   1.321   1_545  A
N10         Co43   2.093       .  S
N11          N47   1.322       .  A
N11         N897   1.319       .  A
N12         C475   1.350       .  A
N12          N22   1.324       .  A
H13          C38   1.080       .  S
N14          N35   1.324       .  A
N14         N441   1.318       .  A
N14        Co223   2.087       .  S
N15          N20   1.324       .  A
N15         N901   1.320       .  A
N15        Co225   2.085       .  S
C16          C44   1.467       .  S
C16        C1038   1.488   1_455  S
C16         N888   1.351   1_455  A
N17          C32   1.342       .  A
N17         N444   1.321       .  A
N17        Co256   2.093       .  S
C18         C889   1.464       .  S
C18          N46   1.337       .  A
C18          H52   1.079       .  S
N19         C869   1.352   1_455  A
N20         C884   1.351       .  A
C21         C886   1.464       .  S
C21        C1065   1.493       .  S
C21          N42   1.356   1_655  A
N22         N462   1.317       .  A
N23          C49   1.339       .  A
N23         N459   1.319       .  A
N23         Co39   2.075       .  S
N24          C38   1.338       .  A
N24         N870   1.318       .  A
N24        Co223   2.076       .  S
N25          N53   1.325       .  A
N25         N457   1.319   1_545  A
N25        Co260   2.087       .  S
H26          C49   1.081       .  S
H27          C44   1.081       .  S
N28         N456   1.317   1_545  A
N28        Co225   2.075       .  S
N29         N879   1.319   1_455  A
N29         Co43   2.087       .  S
N30          N42   1.327       .  A
N30         N914   1.318   1_455  A
N30         Co39   2.095       .  S
C31         C161   1.492       .  S
C31         C479   1.466       .  S
C31          N35   1.352       .  A
C32          C51   1.463       .  S
C32          H36   1.082       .  S
N33          C44   1.342       .  A
N33         N883   1.320   1_455  A
N33        Co260   2.093       .  S
C37         C483   1.458       .  S
C37         C556   1.476       .  S
C37          N53   1.351   1_565  A
Co39        N219   2.087   1_554  S
Co39        N234   2.093   1_554  S
Co39       Cl484   2.452   1_455  S
N40         C485   1.352   1_545  A
C41         C580   1.484       .  S
C41         N446   1.350   1_545  A
Co43        N242   2.087       .  S
Co43        N250   2.093       .  S
Co43       Cl267   2.453   1_445  S
C45         C465   1.466       .  S
N46         N898   1.318       .  A
C49         C471   1.458       .  S
Cl50      Co1308   2.450       .  S
Cl50      Co1093   2.447   1_565  S
Cl50       Co473   2.452   1_655  S
Cl50       Co260   2.453   1_665  S
C51         C137   1.486       .  S
C51         N474   1.352       .  A
N54          C59   1.354       .  A
N54          C58   1.354       .  A
N54          H86   1.033       .  S
N55          C62   1.351       .  A
N55          C63   1.350       .  A
N56          C61   1.352       .  A
N56          C60   1.353       .  A
N56          H87   1.034       .  S
N57          C64   1.354       .  A
N57          C65   1.354       .  A
C58          C66   1.384       .  A
C58          C74   1.415       .  A
C59          C75   1.422       .  A
C59          C67   1.390       .  A
C60          C68   1.386       .  A
C60          C77   1.414       .  A
C61          C76   1.417       .  A
C61          C69   1.388       .  A
C62          C74   1.411       .  A
C62          C70   1.386       .  A
C63          C77   1.413       .  A
C63          C71   1.387       .  A
C64          C72   1.387       .  A
C64          C75   1.421       .  A
C65          C73   1.385       .  A
C65          C76   1.419       .  A
C66          H78   1.082       .  S
C66          C67   1.373       .  A
C67          H79   1.081       .  S
C68          H80   1.082       .  S
C68          C69   1.376       .  A
C69          H81   1.082       .  S
C70          H82   1.082       .  S
C70          C71   1.371       .  A
C71          H83   1.082       .  S
C72          H84   1.082       .  S
C72          C73   1.374       .  A
C73          H85   1.082       .  S
C74         C209   1.487       .  S
C75         C194   1.494       .  S
C76         C173   1.492       .  S
C77         C185   1.485       .  S
N88          C93   1.352       .  A
N88          C92   1.354       .  A
N88         H120   1.036       .  S
N89          C96   1.351       .  A
N89          C97   1.351       .  A
N90          C95   1.353       .  A
N90          C94   1.352       .  A
N90         H121   1.036       .  S
N91          C98   1.352       .  A
N91          C99   1.353       .  A
C92         C100   1.387       .  A
C92         C108   1.416       .  A
C93         C109   1.417       .  A
C93         C101   1.388       .  A
C94         C102   1.386       .  A
C94         C111   1.414       .  A
C95         C110   1.416       .  A
C95         C103   1.388       .  A
C96         C108   1.415       .  A
C96         C104   1.387       .  A
C97         C111   1.413       .  A
C97         C105   1.386       .  A
C98         C106   1.386       .  A
C98         C109   1.416       .  A
C99         C107   1.386       .  A
C99         C110   1.417       .  A
C100        H112   1.082       .  S
C100        C101   1.376       .  A
C101        H113   1.082       .  S
C102        H114   1.082       .  S
C102        C103   1.374       .  A
C103        H115   1.082       .  S
C104        H116   1.082       .  S
C104        C105   1.371       .  A
C105        H117   1.082       .  S
C106        H118   1.082       .  S
C106        C107   1.374       .  A
C107        H119   1.082       .  S
C108        C125   1.490       .  S
C109        C134   1.489       .  S
C110        C158   1.489       .  S
C111        C149   1.485       .  S
C122        C471   1.476       .  S
C122        C127   1.415       .  A
C122        C557   1.402       .  A
C123        H132   1.083       .  S
C123        C124   1.399       .  A
C123        C556   1.402   1_545  A
C124        C559   1.414   1_545  A
C124        S128   1.803       .  S
C125        C126   1.404       .  A
C125        C558   1.414       .  A
C126        H133   1.084       .  S
C126        C127   1.398       .  A
C127        S129   1.803       .  S
S128        H131   1.405       .  S
S129        H130   1.407       .  S
C134        C139   1.412       .  A
C134        C569   1.401       .  A
C135        H144   1.084       .  S
C135        C136   1.399       .  A
C135        C568   1.401   1_545  A
C136        C571   1.416   1_545  A
C136        S140   1.801       .  S
C137        C138   1.407       .  A
C137        C570   1.416       .  A
C138        H145   1.083       .  S
C138        C139   1.402       .  A
C139        S141   1.804       .  S
S140        H143   1.407       .  S
S141        H142   1.405       .  S
C146        C475   1.484       .  S
C146        C151   1.417       .  A
C146        C581   1.407       .  A
C147        H156   1.083       .  S
C147        C148   1.399       .  A
C147        C580   1.407       .  A
C148        C583   1.411       .  A
C148        S152   1.805       .  S
C149        C150   1.400       .  A
C149        C582   1.411       .  A
C150        H157   1.084       .  S
C150        C151   1.398       .  A
C151        S153   1.801       .  S
S152        H155   1.405       .  S
S153        H154   1.408       .  S
C158        C159   1.401       .  A
C158        C597   1.410       .  A
C159        H168   1.084       .  S
C159        C160   1.400       .  A
C160        C161   1.419       .  A
C160        S164   1.801       .  S
C161        C596   1.408       .  A
C162        H169   1.081       .  S
C162        C163   1.400       .  A
C162        C595   1.408       .  A
C163        C592   1.410       .  A
C163        S165   1.805       .  S
S164        H167   1.408       .  S
S165        H166   1.405       .  S
C170        C884   1.488       .  S
C170        C171   1.408       .  A
C170       C1043   1.416       .  A
C171        H180   1.084       .  S
C171        C172   1.401       .  A
C172        C173   1.412       .  A
C172        S176   1.804       .  S
C173       C1042   1.403       .  A
C174        H181   1.084       .  S
C174        C175   1.400       .  A
C174       C1041   1.403   1_455  A
C175       C1038   1.416   1_455  A
C175        S177   1.801       .  S
S176        H179   1.405       .  S
S177        H178   1.407       .  S
C182        C187   1.417       .  A
C182       C1051   1.403       .  A
C183        H192   1.082       .  S
C183        C184   1.398       .  A
C183       C1050   1.403       .  A
C184       C1053   1.412   1_455  A
C184        S188   1.804       .  S
C185        C186   1.401       .  A
C185       C1052   1.412       .  A
C186        H193   1.084       .  S
C186        C187   1.397       .  A
C187        S189   1.803       .  S
S188        H191   1.405       .  S
S189        H190   1.408       .  S
C194        C195   1.402       .  A
C194       C1067   1.413       .  A
C195        H204   1.084       .  S
C195        C196   1.399       .  A
C196        C197   1.419       .  A
C196        S200   1.802       .  S
C197        C889   1.493       .  S
C197       C1066   1.408       .  A
C198        H205   1.083       .  S
C198        C199   1.402       .  A
C198       C1065   1.408   1_455  A
C199       C1062   1.413   1_455  A
C199        S201   1.805       .  S
S200        H203   1.408       .  S
S201        H202   1.406       .  S
C206        C211   1.418       .  A
C206       C1075   1.406       .  A
C207        H216   1.084       .  S
C207        C208   1.400       .  A
C207       C1074   1.406   1_455  A
C208       C1077   1.411       .  A
C208        S212   1.804       .  S
C209        C210   1.400       .  A
C209       C1076   1.411       .  A
C210        H217   1.084       .  S
C210        C211   1.398       .  A
C211        S213   1.801       .  S
S212        H215   1.405       .  S
S213        H214   1.407       .  S
C218        C255   1.461       .  S
C218        C423   1.483       .  S
C218       N1104   1.352       .  A
N219        N236   1.325       .  A
N219       N1109   1.318   1_455  A
C220        C258   1.461       .  S
C220        N245   1.339       .  A
C220        H265   1.081       .  S
H221        C262   1.081       .  S
C222       C1094   1.464       .  S
C222        N246   1.342       .  A
C222        H251   1.081       .  S
Co223       N263   2.080       .  S
Co223       N239   2.083       .  S
Co223     Cl1569   2.450       .  S
N224        C262   1.340       .  A
N224        N665   1.318   1_545  A
N224       Co225   2.085   1_556  S
Co225       N228   2.071   1_554  S
Co225      Cl918   2.447   1_545  S
C226       C1090   1.464       .  S
C226        C399   1.479       .  S
C226        N264   1.346       .  A
N227        N668   1.321   1_545  A
N227        N257   1.325       .  A
N227       Co260   2.093   1_556  S
N228       N1114   1.319       .  A
N228        N264   1.322       .  A
N229        C692   1.350       .  A
N229        N239   1.324       .  A
H230        C255   1.080       .  S
N231        N658   1.318       .  A
N231        N252   1.324       .  A
N232       N1118   1.320       .  A
N232        N237   1.324       .  A
C233        C261   1.467       .  S
C233       C1255   1.488   1_455  S
C233       N1105   1.351   1_455  A
N234        C249   1.342       .  A
N234        N661   1.321       .  A
C235       C1106   1.464       .  S
C235        N263   1.337       .  A
C235        H269   1.079       .  S
N236       C1086   1.352   1_455  A
N237       C1101   1.351       .  A
C238       C1103   1.464       .  S
C238       C1282   1.493       .  S
C238        N259   1.356   1_655  A
N239        N679   1.317       .  A
N240        C266   1.339       .  A
N240        N676   1.319       .  A
N240       Co256   2.075       .  S
N241        C255   1.338       .  A
N241       N1087   1.318       .  A
N242        N674   1.319   1_545  A
N242        N270   1.325       .  A
H243        C266   1.081       .  S
H244        C261   1.081       .  S
N245        N673   1.317   1_545  A
N246       N1096   1.319   1_455  A
N246       Co260   2.087   1_556  S
N247        N259   1.327       .  A
N247       N1131   1.318   1_455  A
N247       Co256   2.095       .  S
C248        C696   1.466       .  S
C248        C378   1.492       .  S
C248        N252   1.352       .  A
C249        C268   1.463       .  S
C249        H253   1.082       .  S
N250        C261   1.342       .  A
N250       N1100   1.320   1_455  A
C254        C700   1.458       .  S
C254        C773   1.476       .  S
C254        N270   1.351   1_565  A
Co256      Cl701   2.452   1_455  S
N257        C702   1.352   1_545  A
C258        C797   1.484       .  S
C258        N663   1.350   1_545  A
C262        C682   1.466       .  S
N263       N1115   1.318       .  A
C266        C688   1.458       .  S
Cl267     Co1525   2.450       .  S
Cl267      Co876   2.447   1_565  S
Cl267      Co690   2.452   1_655  S
C268        C354   1.486       .  S
C268        N691   1.352       .  A
N271        C276   1.354       .  A
N271        C275   1.354       .  A
N271        H303   1.033       .  S
N272        C279   1.351       .  A
N272        C280   1.350       .  A
N273        C278   1.352       .  A
N273        C277   1.353       .  A
N273        H304   1.034       .  S
N274        C281   1.354       .  A
N274        C282   1.354       .  A
C275        C283   1.384       .  A
C275        C291   1.415       .  A
C276        C292   1.422       .  A
C276        C284   1.390       .  A
C277        C285   1.386       .  A
C277        C294   1.414       .  A
C278        C293   1.417       .  A
C278        C286   1.388       .  A
C279        C291   1.411       .  A
C279        C287   1.386       .  A
C280        C294   1.413       .  A
C280        C288   1.387       .  A
C281        C289   1.387       .  A
C281        C292   1.421       .  A
C282        C290   1.385       .  A
C282        C293   1.419       .  A
C283        H295   1.082       .  S
C283        C284   1.373       .  A
C284        H296   1.081       .  S
C285        H297   1.082       .  S
C285        C286   1.376       .  A
C286        H298   1.082       .  S
C287        H299   1.082       .  S
C287        C288   1.371       .  A
C288        H300   1.082       .  S
C289        H301   1.082       .  S
C289        C290   1.374       .  A
C290        H302   1.082       .  S
C291        C426   1.487       .  S
C292        C411   1.494       .  S
C293        C390   1.492       .  S
C294        C402   1.485       .  S
N305        C310   1.352       .  A
N305        C309   1.354       .  A
N305        H337   1.036       .  S
N306        C313   1.351       .  A
N306        C314   1.351       .  A
N307        C312   1.353       .  A
N307        C311   1.352       .  A
N307        H338   1.036       .  S
N308        C315   1.352       .  A
N308        C316   1.353       .  A
C309        C317   1.387       .  A
C309        C325   1.416       .  A
C310        C326   1.417       .  A
C310        C318   1.388       .  A
C311        C319   1.386       .  A
C311        C328   1.414       .  A
C312        C327   1.416       .  A
C312        C320   1.388       .  A
C313        C325   1.415       .  A
C313        C321   1.387       .  A
C314        C328   1.413       .  A
C314        C322   1.386       .  A
C315        C323   1.386       .  A
C315        C326   1.416       .  A
C316        C324   1.386       .  A
C316        C327   1.417       .  A
C317        H329   1.082       .  S
C317        C318   1.376       .  A
C318        H330   1.082       .  S
C319        H331   1.082       .  S
C319        C320   1.374       .  A
C320        H332   1.082       .  S
C321        H333   1.082       .  S
C321        C322   1.371       .  A
C322        H334   1.082       .  S
C323        H335   1.082       .  S
C323        C324   1.374       .  A
C324        H336   1.082       .  S
C325        C342   1.490       .  S
C326        C351   1.489       .  S
C327        C375   1.489       .  S
C328        C366   1.485       .  S
C339        C688   1.476       .  S
C339        C774   1.402       .  A
C339        C344   1.414       .  A
C340        H349   1.083       .  S
C340        C773   1.402   1_545  A
C340        C341   1.399       .  A
C341        C776   1.414   1_545  A
C341        S345   1.803       .  S
C342        C775   1.414       .  A
C342        C343   1.404       .  A
C343        H350   1.084       .  S
C343        C344   1.398       .  A
C344        S346   1.803       .  S
S345        H348   1.405       .  S
S346        H347   1.407       .  S
C351        C786   1.401       .  A
C351        C356   1.412       .  A
C352        H361   1.084       .  S
C352        C785   1.401   1_545  A
C352        C353   1.399       .  A
C353        C788   1.416   1_545  A
C353        S357   1.801       .  S
C354        C787   1.416       .  A
C354        C355   1.407       .  A
C355        H362   1.083       .  S
C355        C356   1.402       .  A
C356        S358   1.804       .  S
S357        H360   1.407       .  S
S358        H359   1.405       .  S
C363        C692   1.484       .  S
C363        C798   1.407       .  A
C363        C368   1.417       .  A
C364        H373   1.083       .  S
C364        C797   1.407       .  A
C364        C365   1.399       .  A
C365        C800   1.411       .  A
C365        S369   1.805       .  S
C366        C799   1.411       .  A
C366        C367   1.400       .  A
C367        H374   1.084       .  S
C367        C368   1.398       .  A
C368        S370   1.801       .  S
S369        H372   1.405       .  S
S370        H371   1.408       .  S
C375        C376   1.401       .  A
C375        C814   1.410       .  A
C376        H385   1.084       .  S
C376        C377   1.400       .  A
C377        C378   1.419       .  A
C377        S381   1.801       .  S
C378        C813   1.408       .  A
C379        H386   1.081       .  S
C379        C812   1.408       .  A
C379        C380   1.400       .  A
C380        C809   1.410       .  A
C380        S382   1.805       .  S
S381        H384   1.408       .  S
S382        H383   1.405       .  S
C387       C1101   1.488       .  S
C387        C388   1.408       .  A
C387       C1260   1.416       .  A
C388        H397   1.084       .  S
C388        C389   1.401       .  A
C389        C390   1.412       .  A
C389        S393   1.804       .  S
C390       C1259   1.403       .  A
C391        H398   1.084       .  S
C391       C1258   1.403   1_455  A
C391        C392   1.400       .  A
C392       C1255   1.416   1_455  A
C392        S394   1.801       .  S
S393        H396   1.405       .  S
S394        H395   1.407       .  S
C399       C1268   1.403       .  A
C399        C404   1.417       .  A
C400        H409   1.082       .  S
C400       C1267   1.403       .  A
C400        C401   1.398       .  A
C401       C1270   1.412   1_455  A
C401        S405   1.804       .  S
C402       C1269   1.412       .  A
C402        C403   1.401       .  A
C403        H410   1.084       .  S
C403        C404   1.397       .  A
C404        S406   1.803       .  S
S405        H408   1.405       .  S
S406        H407   1.408       .  S
C411        C412   1.402       .  A
C411       C1284   1.413       .  A
C412        H421   1.084       .  S
C412        C413   1.399       .  A
C413        C414   1.419       .  A
C413        S417   1.802       .  S
C414       C1106   1.493       .  S
C414       C1283   1.408       .  A
C415        H422   1.083       .  S
C415       C1282   1.408   1_455  A
C415        C416   1.402       .  A
C416       C1279   1.413   1_455  A
C416        S418   1.805       .  S
S417        H420   1.408       .  S
S418        H419   1.406       .  S
C423       C1292   1.406       .  A
C423        C428   1.418       .  A
C424        H433   1.084       .  S
C424       C1291   1.406   1_455  A
C424        C425   1.400       .  A
C425       C1294   1.411       .  A
C425        S429   1.804       .  S
C426       C1293   1.411       .  A
C426        C427   1.400       .  A
C427        H434   1.084       .  S
C427        C428   1.398       .  A
C428        S430   1.801       .  S
S429        H432   1.405       .  S
S430        H431   1.407       .  S
C435        C472   1.461       .  S
C435        C640   1.483       .  S
C435       N1321   1.352       .  A
N436        N453   1.325       .  A
N436       N1326   1.318   1_455  A
N436       Co690   2.087       .  S
C437        C475   1.461       .  S
C437        N462   1.339       .  A
C437        H482   1.081       .  S
H438        C479   1.081       .  S
C439       C1311   1.464       .  S
C439        N463   1.342       .  A
C439        H468   1.081       .  S
Co440       N675   2.076   1_554  S
Co440       N665   2.087   1_554  S
Co440       N480   2.080       .  S
Co440       N456   2.083       .  S
Co440      Cl918   2.450       .  S
N441        C479   1.340       .  A
N441       Co442   2.085       .  S
Co442       N445   2.071       .  S
Co442       N679   2.075       .  S
Co442       N666   2.085       .  S
Co442     Cl1569   2.447       .  S
C443       C1307   1.464       .  S
C443        C616   1.479       .  S
C443        N481   1.346       .  A
N444        N474   1.325       .  A
N444       Co477   2.093       .  S
N445       N1331   1.319       .  A
N445        N481   1.322       .  A
N446        N456   1.324       .  A
H447        C472   1.080       .  S
N448        N469   1.324       .  A
N448       Co657   2.087       .  S
N449       N1335   1.320       .  A
N449        N454   1.324       .  A
N449       Co659   2.085       .  S
C450        C478   1.467       .  S
C450       C1472   1.488   1_455  S
C450       N1322   1.351   1_455  A
N451        C466   1.342       .  A
N451       Co690   2.093       .  S
C452       C1323   1.464       .  S
C452        N480   1.337       .  A
C452        H486   1.079       .  S
N453       C1303   1.352   1_455  A
N454       C1318   1.351       .  A
C455       C1320   1.464       .  S
C455       C1499   1.493       .  S
C455        N476   1.356   1_655  A
N457        C483   1.339       .  A
N457       Co473   2.075       .  S
N458        C472   1.338       .  A
N458       N1304   1.318       .  A
N458       Co657   2.076       .  S
N459        N487   1.325       .  A
N459       Co694   2.087       .  S
H460        C483   1.081       .  S
H461        C478   1.081       .  S
N462       Co659   2.075       .  S
N463       N1313   1.319   1_455  A
N463       Co477   2.087       .  S
N464        N476   1.327       .  A
N464       N1348   1.318   1_455  A
N464       Co473   2.095       .  S
C465        C595   1.492       .  S
C465        N469   1.352   1_545  A
C466        C485   1.463       .  S
C466        H470   1.082       .  S
N467        C478   1.342       .  A
N467       N1317   1.320   1_455  A
N467       Co694   2.093       .  S
C471        N487   1.351       .  A
Co473       N653   2.087   1_554  S
Co473       N668   2.093   1_554  S
Co477       N676   2.087       .  S
Co477       N684   2.093       .  S
Co477      Cl701   2.453   1_455  S
N480       N1332   1.318       .  A
Cl484      Co874   2.450       .  S
Cl484     Co1527   2.447       .  S
Cl484      Co694   2.453   1_655  S
C485        C571   1.486       .  S
N488        C493   1.354       .  A
N488        C492   1.354       .  A
N488        H520   1.033       .  S
N489        C496   1.351       .  A
N489        C497   1.350       .  A
N490        C495   1.352       .  A
N490        C494   1.353       .  A
N490        H521   1.034       .  S
N491        C498   1.354       .  A
N491        C499   1.354       .  A
C492        C500   1.384       .  A
C492        C508   1.415       .  A
C493        C509   1.422       .  A
C493        C501   1.390       .  A
C494        C502   1.386       .  A
C494        C511   1.414       .  A
C495        C510   1.417       .  A
C495        C503   1.388       .  A
C496        C508   1.411       .  A
C496        C504   1.386       .  A
C497        C511   1.413       .  A
C497        C505   1.387       .  A
C498        C506   1.387       .  A
C498        C509   1.421       .  A
C499        C507   1.385       .  A
C499        C510   1.419       .  A
C500        H512   1.082       .  S
C500        C501   1.373       .  A
C501        H513   1.081       .  S
C502        H514   1.082       .  S
C502        C503   1.376       .  A
C503        H515   1.082       .  S
C504        H516   1.082       .  S
C504        C505   1.371       .  A
C505        H517   1.082       .  S
C506        H518   1.082       .  S
C506        C507   1.374       .  A
C507        H519   1.082       .  S
C508        C643   1.487       .  S
C509        C628   1.494       .  S
C510        C607   1.492       .  S
C511        C619   1.485       .  S
N522        C527   1.352   1_545  A
N522        C526   1.354   1_545  A
N522        H554   1.036       .  S
N523        C530   1.351       .  A
N523        C531   1.351       .  A
N524        C529   1.353   1_545  A
N524        C528   1.352   1_545  A
N524        H555   1.036       .  S
N525        C532   1.352   1_565  A
N525        C533   1.353   1_565  A
C526        C534   1.387       .  A
C526        C542   1.416       .  A
C527        C543   1.417       .  A
C527        C535   1.388       .  A
C528        C536   1.386       .  A
C528        C545   1.414   1_565  A
C529        C544   1.416   1_565  A
C529        C537   1.388       .  A
C530        C542   1.415   1_545  A
C530        C538   1.387       .  A
C531        C545   1.413       .  A
C531        C539   1.386       .  A
C532        C540   1.386       .  A
C532        C543   1.416   1_545  A
C533        C541   1.386       .  A
C533        C544   1.417       .  A
C534        H546   1.082       .  S
C534        C535   1.376       .  A
C535        H547   1.082       .  S
C536        H548   1.082       .  S
C536        C537   1.374       .  A
C537        H549   1.082       .  S
C538        H550   1.082       .  S
C538        C539   1.371       .  A
C539        H551   1.082       .  S
C540        H552   1.082       .  S
C540        C541   1.374       .  A
C541        H553   1.082       .  S
C542        C559   1.490       .  S
C543        C568   1.489       .  S
C544        C592   1.489       .  S
C545        C583   1.485       .  S
C556        C561   1.414       .  A
C557        H566   1.083       .  S
C557        C558   1.399       .  A
C558        S562   1.803       .  S
C559        C560   1.404       .  A
C560        H567   1.084       .  S
C560        C561   1.398       .  A
C561        S563   1.803       .  S
S562        H565   1.405       .  S
S563        H564   1.407       .  S
C568        C573   1.412       .  A
C569        H578   1.084       .  S
C569        C570   1.399       .  A
C570        S574   1.801       .  S
C571        C572   1.407       .  A
C572        H579   1.083       .  S
C572        C573   1.402       .  A
C573        S575   1.804       .  S
S574        H577   1.407       .  S
S575        H576   1.405       .  S
C580        C585   1.417   1_545  A
C581        H590   1.083       .  S
C581        C582   1.399       .  A
C582        S586   1.805       .  S
C583        C584   1.400   1_545  A
C584        H591   1.084       .  S
C584        C585   1.398       .  A
C585        S587   1.801       .  S
S586        H589   1.405       .  S
S587        H588   1.408       .  S
C592        C593   1.401   1_545  A
C593        H602   1.084       .  S
C593        C594   1.400       .  A
C594        C595   1.419   1_565  A
C594        S598   1.801       .  S
C596        H603   1.081       .  S
C596        C597   1.400       .  A
C597        S599   1.805       .  S
S598        H601   1.408       .  S
S599        H600   1.405       .  S
C604       C1318   1.488       .  S
C604        C605   1.408       .  A
C604       C1477   1.416       .  A
C605        H614   1.084       .  S
C605        C606   1.401       .  A
C606        C607   1.412       .  A
C606        S610   1.804       .  S
C607       C1476   1.403       .  A
C608        H615   1.084       .  S
C608       C1475   1.403   1_455  A
C608        C609   1.400       .  A
C609       C1472   1.416   1_455  A
C609        S611   1.801       .  S
S610        H613   1.405       .  S
S611        H612   1.407       .  S
C616       C1485   1.403       .  A
C616        C621   1.417       .  A
C617        H626   1.082       .  S
C617       C1484   1.403       .  A
C617        C618   1.398       .  A
C618       C1487   1.412   1_455  A
C618        S622   1.804       .  S
C619       C1486   1.412       .  A
C619        C620   1.401       .  A
C620        H627   1.084       .  S
C620        C621   1.397       .  A
C621        S623   1.803       .  S
S622        H625   1.405       .  S
S623        H624   1.408       .  S
C628        C629   1.402       .  A
C628       C1501   1.413       .  A
C629        H638   1.084       .  S
C629        C630   1.399       .  A
C630        C631   1.419       .  A
C630        S634   1.802       .  S
C631       C1323   1.493       .  S
C631       C1500   1.408       .  A
C632        H639   1.083       .  S
C632       C1499   1.408   1_455  A
C632        C633   1.402       .  A
C633       C1496   1.413   1_455  A
C633        S635   1.805       .  S
S634        H637   1.408       .  S
S635        H636   1.406       .  S
C640       C1509   1.406       .  A
C640        C645   1.418       .  A
C641        H650   1.084       .  S
C641       C1508   1.406   1_455  A
C641        C642   1.400       .  A
C642       C1511   1.411       .  A
C642        S646   1.804       .  S
C643       C1510   1.411       .  A
C643        C644   1.400       .  A
C644        H651   1.084       .  S
C644        C645   1.398       .  A
C645        S647   1.801       .  S
S646        H649   1.405       .  S
S647        H648   1.407       .  S
C652        C689   1.461       .  S
C652        C857   1.483       .  S
C652       N1538   1.352       .  A
N653        N670   1.325       .  A
N653       N1543   1.318   1_455  A
C654        C692   1.461       .  S
C654        N679   1.339       .  A
C654        H699   1.081       .  S
H655        C696   1.081       .  S
C656       C1528   1.464       .  S
C656        N680   1.342       .  A
C656        H685   1.081       .  S
Co657       N697   2.080       .  S
Co657       N673   2.083       .  S
Co657     Cl1135   2.450       .  S
N658        C696   1.340       .  A
N658       Co659   2.085   1_556  S
Co659       N662   2.071   1_554  S
Co659     Cl1352   2.447       .  S
C660       C1524   1.464       .  S
C660        C833   1.479       .  S
C660        N698   1.346       .  A
N661        N691   1.325       .  A
N661       Co694   2.093   1_556  S
N662       N1548   1.319       .  A
N662        N698   1.322       .  A
N663        N673   1.324       .  A
H664        C689   1.080       .  S
N665        N686   1.324       .  A
N666       N1552   1.320       .  A
N666        N671   1.324       .  A
C667        C695   1.467       .  S
C667       C1689   1.488   1_455  S
C667       N1539   1.351   1_455  A
N668        C683   1.342       .  A
C669       C1540   1.464       .  S
C669        N697   1.337       .  A
C669        H703   1.079       .  S
N670       C1520   1.352   1_455  A
N671       C1535   1.351       .  A
C672       C1537   1.464       .  S
C672       C1716   1.493       .  S
C672        N693   1.356   1_655  A
N674        C700   1.339       .  A
N674       Co690   2.075       .  S
N675        C689   1.338       .  A
N675       N1521   1.318       .  A
N676        N704   1.325       .  A
H677        C700   1.081       .  S
H678        C695   1.081       .  S
N680       N1530   1.319   1_455  A
N680       Co694   2.087   1_556  S
N681        N693   1.327       .  A
N681       N1565   1.318   1_455  A
N681       Co690   2.095       .  S
C682        C812   1.492       .  S
C682        N686   1.352   1_545  A
C683        C702   1.463       .  S
C683        H687   1.082       .  S
N684        C695   1.342       .  A
N684       N1534   1.320   1_455  A
C688        N704   1.351       .  A
N697       N1549   1.318       .  A
Cl701     Co1091   2.450       .  S
Cl701     Co1310   2.447       .  S
C702        C788   1.486       .  S
N705        C710   1.354       .  A
N705        C709   1.354       .  A
N705        H737   1.033       .  S
N706        C713   1.351       .  A
N706        C714   1.350       .  A
N707        C712   1.352       .  A
N707        C711   1.353       .  A
N707        H738   1.034       .  S
N708        C715   1.354       .  A
N708        C716   1.354       .  A
C709        C717   1.384       .  A
C709        C725   1.415       .  A
C710        C726   1.422       .  A
C710        C718   1.390       .  A
C711        C719   1.386       .  A
C711        C728   1.414       .  A
C712        C727   1.417       .  A
C712        C720   1.388       .  A
C713        C725   1.411       .  A
C713        C721   1.386       .  A
C714        C728   1.413       .  A
C714        C722   1.387       .  A
C715        C723   1.387       .  A
C715        C726   1.421       .  A
C716        C724   1.385       .  A
C716        C727   1.419       .  A
C717        H729   1.082       .  S
C717        C718   1.373       .  A
C718        H730   1.081       .  S
C719        H731   1.082       .  S
C719        C720   1.376       .  A
C720        H732   1.082       .  S
C721        H733   1.082       .  S
C721        C722   1.371       .  A
C722        H734   1.082       .  S
C723        H735   1.082       .  S
C723        C724   1.374       .  A
C724        H736   1.082       .  S
C725        C860   1.487       .  S
C726        C845   1.494       .  S
C727        C824   1.492       .  S
C728        C836   1.485       .  S
N739        C744   1.352   1_545  A
N739        C743   1.354   1_545  A
N739        H771   1.036       .  S
N740        C747   1.351       .  A
N740        C748   1.351       .  A
N741        C746   1.353   1_545  A
N741        C745   1.352   1_545  A
N741        H772   1.036       .  S
N742        C749   1.352   1_565  A
N742        C750   1.353   1_565  A
C743        C751   1.387       .  A
C743        C759   1.416       .  A
C744        C760   1.417       .  A
C744        C752   1.388       .  A
C745        C753   1.386       .  A
C745        C762   1.414   1_565  A
C746        C761   1.416   1_565  A
C746        C754   1.388       .  A
C747        C759   1.415   1_545  A
C747        C755   1.387       .  A
C748        C762   1.413       .  A
C748        C756   1.386       .  A
C749        C757   1.386       .  A
C749        C760   1.416   1_545  A
C750        C758   1.386       .  A
C750        C761   1.417       .  A
C751        H763   1.082       .  S
C751        C752   1.376       .  A
C752        H764   1.082       .  S
C753        H765   1.082       .  S
C753        C754   1.374       .  A
C754        H766   1.082       .  S
C755        H767   1.082       .  S
C755        C756   1.371       .  A
C756        H768   1.082       .  S
C757        H769   1.082       .  S
C757        C758   1.374       .  A
C758        H770   1.082       .  S
C759        C776   1.490       .  S
C760        C785   1.489       .  S
C761        C809   1.489       .  S
C762        C800   1.485       .  S
C773        C778   1.414       .  A
C774        H783   1.083       .  S
C774        C775   1.399       .  A
C775        S779   1.803       .  S
C776        C777   1.404       .  A
C777        H784   1.084       .  S
C777        C778   1.398       .  A
C778        S780   1.803       .  S
S779        H782   1.405       .  S
S780        H781   1.407       .  S
C785        C790   1.412       .  A
C786        H795   1.084       .  S
C786        C787   1.399       .  A
C787        S791   1.801       .  S
C788        C789   1.407       .  A
C789        H796   1.083       .  S
C789        C790   1.402       .  A
C790        S792   1.804       .  S
S791        H794   1.407       .  S
S792        H793   1.405       .  S
C797        C802   1.417   1_545  A
C798        H807   1.083       .  S
C798        C799   1.399       .  A
C799        S803   1.805       .  S
C800        C801   1.400   1_545  A
C801        H808   1.084       .  S
C801        C802   1.398       .  A
C802        S804   1.801       .  S
S803        H806   1.405       .  S
S804        H805   1.408       .  S
C809        C810   1.401   1_545  A
C810        H819   1.084       .  S
C810        C811   1.400       .  A
C811        C812   1.419   1_565  A
C811        S815   1.801       .  S
C813        H820   1.081       .  S
C813        C814   1.400       .  A
C814        S816   1.805       .  S
S815        H818   1.408       .  S
S816        H817   1.405       .  S
C821       C1535   1.488       .  S
C821        C822   1.408       .  A
C821       C1694   1.416       .  A
C822        H831   1.084       .  S
C822        C823   1.401       .  A
C823        C824   1.412       .  A
C823        S827   1.804       .  S
C824       C1693   1.403       .  A
C825        H832   1.084       .  S
C825       C1692   1.403   1_455  A
C825        C826   1.400       .  A
C826       C1689   1.416   1_455  A
C826        S828   1.801       .  S
S827        H830   1.405       .  S
S828        H829   1.407       .  S
C833       C1702   1.403       .  A
C833        C838   1.417       .  A
C834        H843   1.082       .  S
C834       C1701   1.403       .  A
C834        C835   1.398       .  A
C835       C1704   1.412   1_455  A
C835        S839   1.804       .  S
C836       C1703   1.412       .  A
C836        C837   1.401       .  A
C837        H844   1.084       .  S
C837        C838   1.397       .  A
C838        S840   1.803       .  S
S839        H842   1.405       .  S
S840        H841   1.408       .  S
C845        C846   1.402       .  A
C845       C1718   1.413       .  A
C846        H855   1.084       .  S
C846        C847   1.399       .  A
C847        C848   1.419       .  A
C847        S851   1.802       .  S
C848       C1540   1.493       .  S
C848       C1717   1.408       .  A
C849        H856   1.083       .  S
C849       C1716   1.408   1_455  A
C849        C850   1.402       .  A
C850       C1713   1.413   1_455  A
C850        S852   1.805       .  S
S851        H854   1.408       .  S
S852        H853   1.406       .  S
C857       C1726   1.406       .  A
C857        C862   1.418       .  A
C858        H867   1.084       .  S
C858       C1725   1.406   1_455  A
C858        C859   1.400       .  A
C859       C1728   1.411       .  A
C859        S863   1.804       .  S
C860       C1727   1.411       .  A
C860        C861   1.400       .  A
C861        H868   1.084       .  S
C861        C862   1.398       .  A
C862        S864   1.801       .  S
S863        H866   1.405       .  S
S864        H865   1.407       .  S
C869        C906   1.461       .  S
C869       C1074   1.483       .  S
N870        N887   1.325       .  A
N870      Co1124   2.087       .  S
C871        C909   1.461       .  S
C871        N896   1.339       .  A
C871        H916   1.081       .  S
H872        C913   1.081       .  S
C873        N897   1.342       .  A
C873        H902   1.081       .  S
Co874      N1109   2.076   1_554  S
Co874      N1099   2.087   1_554  S
Co874       N914   2.080       .  S
Co874       N890   2.083       .  S
N875        C913   1.340       .  A
N875       N1316   1.318   1_545  A
N875       Co876   2.085       .  S
Co876       N879   2.071       .  S
Co876      N1113   2.075       .  S
Co876      N1100   2.085       .  S
C877       C1050   1.479       .  S
C877        N915   1.346   1_455  A
N878       N1319   1.321   1_545  A
N878        N908   1.325       .  A
N878       Co911   2.093       .  S
N879        N915   1.322       .  A
N880       C1343   1.350       .  A
N880        N890   1.324       .  A
H881        C906   1.080       .  S
N882       N1309   1.318       .  A
N882        N903   1.324       .  A
N882      Co1091   2.087       .  S
N883        N888   1.324       .  A
N883      Co1093   2.085       .  S
C884        C912   1.467       .  S
N885        C900   1.342       .  A
N885       N1312   1.321       .  A
N885      Co1124   2.093       .  S
C886        N914   1.337       .  A
C886        H920   1.079       .  S
C889        N910   1.356       .  A
N890       N1330   1.317       .  A
N891        C917   1.339       .  A
N891       N1327   1.319       .  A
N891       Co907   2.075       .  S
N892        C906   1.338       .  A
N892      Co1091   2.076       .  S
N893       N1325   1.319   1_545  A
N893        N921   1.325       .  A
N893      Co1128   2.087       .  S
H894        C917   1.081       .  S
H895        C912   1.081       .  S
N896       N1324   1.317   1_545  A
N896      Co1093   2.075       .  S
N897       Co911   2.087       .  S
N898        N910   1.327       .  A
N898       Co907   2.095       .  S
C899       C1347   1.466       .  S
C899       C1029   1.492       .  S
C899        N903   1.352       .  A
C900        C919   1.463       .  S
C900        H904   1.082       .  S
N901        C912   1.342       .  A
N901      Co1128   2.093       .  S
C905       C1351   1.458       .  S
C905       C1424   1.476       .  S
C905        N921   1.351   1_565  A
Co907      N1087   2.087   1_554  S
Co907      N1102   2.093   1_554  S
Co907     Cl1352   2.452       .  S
N908       C1353   1.352   1_545  A
C909       C1448   1.484       .  S
C909       N1314   1.350   1_545  A
Co911      N1110   2.087       .  S
Co911      N1118   2.093       .  S
Co911     Cl1135   2.453   1_545  S
C913       C1333   1.466       .  S
C917       C1339   1.458       .  S
Cl918     Co1341   2.452       .  S
Cl918     Co1128   2.453   1_565  S
C919       C1005   1.486       .  S
C919       N1342   1.352       .  A
N922        C927   1.354       .  A
N922        C926   1.354       .  A
N922        H954   1.033   1_655  S
N923        C930   1.351   1_655  A
N923        C931   1.350   1_655  A
N924        C929   1.352       .  A
N924        C928   1.353       .  A
N924        H955   1.034   1_655  S
N925        C932   1.354       .  A
N925        C933   1.354       .  A
C926        C934   1.384       .  A
C926        C942   1.415   1_655  A
C927        C943   1.422       .  A
C927        C935   1.390       .  A
C928        C936   1.386       .  A
C928        C945   1.414       .  A
C929        C944   1.417       .  A
C929        C937   1.388       .  A
C930        C942   1.411       .  A
C930        C938   1.386       .  A
C931        C945   1.413   1_455  A
C931        C939   1.387       .  A
C932        C940   1.387   1_655  A
C932        C943   1.421       .  A
C933        C941   1.385   1_655  A
C933        C944   1.419       .  A
C934        H946   1.082       .  S
C934        C935   1.373       .  A
C935        H947   1.081       .  S
C936        H948   1.082       .  S
C936        C937   1.376       .  A
C937        H949   1.082       .  S
C938        H950   1.082       .  S
C938        C939   1.371       .  A
C939        H951   1.082       .  S
C940        H952   1.082       .  S
C940        C941   1.374       .  A
C941        H953   1.082       .  S
C942       C1077   1.487       .  S
C943       C1062   1.494       .  S
C944       C1041   1.492       .  S
C945       C1053   1.485       .  S
N956        C961   1.352       .  A
N956        C960   1.354       .  A
N956        H988   1.036       .  S
N957        C964   1.351       .  A
N957        C965   1.351       .  A
N958        C963   1.353       .  A
N958        C962   1.352       .  A
N958        H989   1.036       .  S
N959        C966   1.352       .  A
N959        C967   1.353       .  A
C960        C968   1.387       .  A
C960        C976   1.416       .  A
C961        C977   1.417       .  A
C961        C969   1.388       .  A
C962        C970   1.386       .  A
C962        C979   1.414       .  A
C963        C978   1.416       .  A
C963        C971   1.388       .  A
C964        C976   1.415       .  A
C964        C972   1.387       .  A
C965        C979   1.413       .  A
C965        C973   1.386       .  A
C966        C974   1.386       .  A
C966        C977   1.416       .  A
C967        C975   1.386       .  A
C967        C978   1.417       .  A
C968        H980   1.082       .  S
C968        C969   1.376       .  A
C969        H981   1.082       .  S
C970        H982   1.082       .  S
C970        C971   1.374       .  A
C971        H983   1.082       .  S
C972        H984   1.082       .  S
C972        C973   1.371       .  A
C973        H985   1.082       .  S
C974        H986   1.082       .  S
C974        C975   1.374       .  A
C975        H987   1.082       .  S
C976        C993   1.490       .  S
C977       C1002   1.489       .  S
C978       C1026   1.489       .  S
C979       C1017   1.485       .  S
C990       C1339   1.476       .  S
C990       C1425   1.402       .  A
C990        C995   1.414       .  A
C991       H1000   1.083       .  S
C991       C1424   1.402   1_545  A
C991        C992   1.399       .  A
C992       C1427   1.414   1_545  A
C992        S996   1.803       .  S
C993       C1426   1.414       .  A
C993        C994   1.404       .  A
C994       H1001   1.084       .  S
C994        C995   1.398       .  A
C995        S997   1.803       .  S
S996        H999   1.405       .  S
S997        H998   1.407       .  S
C1002      C1437   1.401       .  A
C1002      C1007   1.412       .  A
C1003      H1012   1.084       .  S
C1003      C1436   1.401   1_545  A
C1003      C1004   1.399       .  A
C1004      C1439   1.416   1_545  A
C1004      S1008   1.801       .  S
C1005      C1438   1.416       .  A
C1005      C1006   1.407       .  A
C1006      H1013   1.083       .  S
C1006      C1007   1.402       .  A
C1007      S1009   1.804       .  S
S1008      H1011   1.407       .  S
S1009      H1010   1.405       .  S
C1014      C1343   1.484       .  S
C1014      C1449   1.407       .  A
C1014      C1019   1.417       .  A
C1015      H1024   1.083       .  S
C1015      C1448   1.407       .  A
C1015      C1016   1.399       .  A
C1016      C1451   1.411       .  A
C1016      S1020   1.805       .  S
C1017      C1450   1.411       .  A
C1017      C1018   1.400       .  A
C1018      H1025   1.084       .  S
C1018      C1019   1.398       .  A
C1019      S1021   1.801       .  S
S1020      H1023   1.405       .  S
S1021      H1022   1.408       .  S
C1026      C1027   1.401       .  A
C1026      C1465   1.410       .  A
C1027      H1036   1.084       .  S
C1027      C1028   1.400       .  A
C1028      C1029   1.419       .  A
C1028      S1032   1.801       .  S
C1029      C1464   1.408       .  A
C1030      H1037   1.081       .  S
C1030      C1463   1.408       .  A
C1030      C1031   1.400       .  A
C1031      C1460   1.410       .  A
C1031      S1033   1.805       .  S
S1032      H1035   1.408       .  S
S1033      H1034   1.405       .  S
C1038      C1039   1.408       .  A
C1039      H1048   1.084       .  S
C1039      C1040   1.401       .  A
C1040      C1041   1.412       .  A
C1040      S1044   1.804       .  S
C1042      H1049   1.084       .  S
C1042      C1043   1.400       .  A
C1043      S1045   1.801       .  S
S1044      H1047   1.405       .  S
S1045      H1046   1.407       .  S
C1050      C1055   1.417   1_455  A
C1051      H1060   1.082       .  S
C1051      C1052   1.398       .  A
C1052      S1056   1.804       .  S
C1053      C1054   1.401       .  A
C1054      H1061   1.084       .  S
C1054      C1055   1.397       .  A
C1055      S1057   1.803       .  S
S1056      H1059   1.405       .  S
S1057      H1058   1.408       .  S
C1062      C1063   1.402       .  A
C1063      H1072   1.084       .  S
C1063      C1064   1.399       .  A
C1064      C1065   1.419       .  A
C1064      S1068   1.802       .  S
C1066      H1073   1.083       .  S
C1066      C1067   1.402       .  A
C1067      S1069   1.805       .  S
S1068      H1071   1.408       .  S
S1069      H1070   1.406       .  S
C1074      C1079   1.418       .  A
C1075      H1084   1.084       .  S
C1075      C1076   1.400       .  A
C1076      S1080   1.804       .  S
C1077      C1078   1.400   1_455  A
C1078      H1085   1.084       .  S
C1078      C1079   1.398       .  A
C1079      S1081   1.801       .  S
S1080      H1083   1.405       .  S
S1081      H1082   1.407       .  S
C1086      C1123   1.461       .  S
C1086      C1291   1.483       .  S
N1087      N1104   1.325       .  A
C1088      C1126   1.461       .  S
C1088      N1113   1.339       .  A
C1088      H1133   1.081       .  S
H1089      C1130   1.081       .  S
C1090      N1114   1.342       .  A
C1090      H1119   1.081       .  S
Co1091     N1131   2.080       .  S
Co1091     N1107   2.083       .  S
N1092      C1130   1.340       .  A
N1092      N1533   1.318   1_545  A
N1092     Co1093   2.085   1_556  S
Co1093     N1096   2.071   1_554  S
C1094      C1267   1.479       .  S
C1094      N1132   1.346   1_455  A
N1095      N1536   1.321   1_545  A
N1095      N1125   1.325       .  A
N1095     Co1128   2.093   1_556  S
N1096      N1132   1.322       .  A
N1097      C1560   1.350       .  A
N1097      N1107   1.324       .  A
H1098      C1123   1.080       .  S
N1099      N1526   1.318       .  A
N1099      N1120   1.324       .  A
N1100      N1105   1.324       .  A
C1101      C1129   1.467       .  S
N1102      C1117   1.342       .  A
N1102      N1529   1.321       .  A
C1103      N1131   1.337       .  A
C1103      H1137   1.079       .  S
C1106      N1127   1.356       .  A
N1107      N1547   1.317       .  A
N1108      C1134   1.339       .  A
N1108      N1544   1.319       .  A
N1108     Co1124   2.075       .  S
N1109      C1123   1.338       .  A
N1110      N1542   1.319   1_545  A
N1110      N1138   1.325       .  A
H1111      C1134   1.081       .  S
H1112      C1129   1.081       .  S
N1113      N1541   1.317   1_545  A
N1114     Co1128   2.087   1_556  S
N1115      N1127   1.327       .  A
N1115     Co1124   2.095       .  S
C1116      C1564   1.466       .  S
C1116      C1246   1.492       .  S
C1116      N1120   1.352       .  A
C1117      C1136   1.463       .  S
C1117      H1121   1.082       .  S
N1118      C1129   1.342       .  A
C1122      C1568   1.458       .  S
C1122      C1641   1.476       .  S
C1122      N1138   1.351   1_565  A
Co1124    Cl1569   2.452       .  S
N1125      C1570   1.352   1_545  A
C1126      C1665   1.484       .  S
C1126      N1531   1.350   1_545  A
C1130      C1550   1.466       .  S
C1134      C1556   1.458       .  S
Cl1135    Co1558   2.452       .  S
C1136      C1222   1.486       .  S
C1136      N1559   1.352       .  A
N1139      C1144   1.354       .  A
N1139      C1143   1.354       .  A
N1139      H1171   1.033   1_655  S
N1140      C1147   1.351   1_655  A
N1140      C1148   1.350   1_655  A
N1141      C1146   1.352       .  A
N1141      C1145   1.353       .  A
N1141      H1172   1.034   1_655  S
N1142      C1149   1.354       .  A
N1142      C1150   1.354       .  A
C1143      C1151   1.384       .  A
C1143      C1159   1.415   1_655  A
C1144      C1160   1.422       .  A
C1144      C1152   1.390       .  A
C1145      C1153   1.386       .  A
C1145      C1162   1.414       .  A
C1146      C1161   1.417       .  A
C1146      C1154   1.388       .  A
C1147      C1159   1.411       .  A
C1147      C1155   1.386       .  A
C1148      C1162   1.413   1_455  A
C1148      C1156   1.387       .  A
C1149      C1157   1.387   1_655  A
C1149      C1160   1.421       .  A
C1150      C1158   1.385   1_655  A
C1150      C1161   1.419       .  A
C1151      H1163   1.082       .  S
C1151      C1152   1.373       .  A
C1152      H1164   1.081       .  S
C1153      H1165   1.082       .  S
C1153      C1154   1.376       .  A
C1154      H1166   1.082       .  S
C1155      H1167   1.082       .  S
C1155      C1156   1.371       .  A
C1156      H1168   1.082       .  S
C1157      H1169   1.082       .  S
C1157      C1158   1.374       .  A
C1158      H1170   1.082       .  S
C1159      C1294   1.487       .  S
C1160      C1279   1.494       .  S
C1161      C1258   1.492       .  S
C1162      C1270   1.485       .  S
N1173      C1178   1.352       .  A
N1173      C1177   1.354       .  A
N1173      H1205   1.036       .  S
N1174      C1181   1.351       .  A
N1174      C1182   1.351       .  A
N1175      C1180   1.353       .  A
N1175      C1179   1.352       .  A
N1175      H1206   1.036       .  S
N1176      C1183   1.352       .  A
N1176      C1184   1.353       .  A
C1177      C1185   1.387       .  A
C1177      C1193   1.416       .  A
C1178      C1194   1.417       .  A
C1178      C1186   1.388       .  A
C1179      C1187   1.386       .  A
C1179      C1196   1.414       .  A
C1180      C1195   1.416       .  A
C1180      C1188   1.388       .  A
C1181      C1193   1.415       .  A
C1181      C1189   1.387       .  A
C1182      C1196   1.413       .  A
C1182      C1190   1.386       .  A
C1183      C1191   1.386       .  A
C1183      C1194   1.416       .  A
C1184      C1192   1.386       .  A
C1184      C1195   1.417       .  A
C1185      H1197   1.082       .  S
C1185      C1186   1.376       .  A
C1186      H1198   1.082       .  S
C1187      H1199   1.082       .  S
C1187      C1188   1.374       .  A
C1188      H1200   1.082       .  S
C1189      H1201   1.082       .  S
C1189      C1190   1.371       .  A
C1190      H1202   1.082       .  S
C1191      H1203   1.082       .  S
C1191      C1192   1.374       .  A
C1192      H1204   1.082       .  S
C1193      C1210   1.490       .  S
C1194      C1219   1.489       .  S
C1195      C1243   1.489       .  S
C1196      C1234   1.485       .  S
C1207      C1556   1.476       .  S
C1207      C1642   1.402       .  A
C1207      C1212   1.415       .  A
C1208      H1217   1.083       .  S
C1208      C1641   1.402   1_545  A
C1208      C1209   1.399       .  A
C1209      C1644   1.414   1_545  A
C1209      S1213   1.803       .  S
C1210      C1643   1.414       .  A
C1210      C1211   1.404       .  A
C1211      H1218   1.084       .  S
C1211      C1212   1.398       .  A
C1212      S1214   1.803       .  S
S1213      H1216   1.405       .  S
S1214      H1215   1.407       .  S
C1219      C1654   1.401       .  A
C1219      C1224   1.412       .  A
C1220      H1229   1.084       .  S
C1220      C1653   1.401   1_545  A
C1220      C1221   1.399       .  A
C1221      C1656   1.416   1_545  A
C1221      S1225   1.801       .  S
C1222      C1655   1.416       .  A
C1222      C1223   1.407       .  A
C1223      H1230   1.083       .  S
C1223      C1224   1.402       .  A
C1224      S1226   1.804       .  S
S1225      H1228   1.407       .  S
S1226      H1227   1.405       .  S
C1231      C1560   1.484       .  S
C1231      C1666   1.407       .  A
C1231      C1236   1.417       .  A
C1232      H1241   1.083       .  S
C1232      C1665   1.407       .  A
C1232      C1233   1.399       .  A
C1233      C1668   1.411       .  A
C1233      S1237   1.805       .  S
C1234      C1667   1.411       .  A
C1234      C1235   1.400       .  A
C1235      H1242   1.084       .  S
C1235      C1236   1.398       .  A
C1236      S1238   1.801       .  S
S1237      H1240   1.405       .  S
S1238      H1239   1.408       .  S
C1243      C1244   1.401       .  A
C1243      C1682   1.410       .  A
C1244      H1253   1.084       .  S
C1244      C1245   1.400       .  A
C1245      C1246   1.419       .  A
C1245      S1249   1.801       .  S
C1246      C1681   1.408       .  A
C1247      H1254   1.081       .  S
C1247      C1680   1.408       .  A
C1247      C1248   1.400       .  A
C1248      C1677   1.410       .  A
C1248      S1250   1.805       .  S
S1249      H1252   1.408       .  S
S1250      H1251   1.405       .  S
C1255      C1256   1.408       .  A
C1256      H1265   1.084       .  S
C1256      C1257   1.401       .  A
C1257      C1258   1.412       .  A
C1257      S1261   1.804       .  S
C1259      H1266   1.084       .  S
C1259      C1260   1.400       .  A
C1260      S1262   1.801       .  S
S1261      H1264   1.405       .  S
S1262      H1263   1.407       .  S
C1267      C1272   1.417   1_455  A
C1268      H1277   1.082       .  S
C1268      C1269   1.398       .  A
C1269      S1273   1.804       .  S
C1270      C1271   1.401       .  A
C1271      H1278   1.084       .  S
C1271      C1272   1.397       .  A
C1272      S1274   1.803       .  S
S1273      H1276   1.405       .  S
S1274      H1275   1.408       .  S
C1279      C1280   1.402       .  A
C1280      H1289   1.084       .  S
C1280      C1281   1.399       .  A
C1281      C1282   1.419       .  A
C1281      S1285   1.802       .  S
C1283      H1290   1.083       .  S
C1283      C1284   1.402       .  A
C1284      S1286   1.805       .  S
S1285      H1288   1.408       .  S
S1286      H1287   1.406       .  S
C1291      C1296   1.418       .  A
C1292      H1301   1.084       .  S
C1292      C1293   1.400       .  A
C1293      S1297   1.804       .  S
C1294      C1295   1.400   1_455  A
C1295      H1302   1.084       .  S
C1295      C1296   1.398       .  A
C1296      S1298   1.801       .  S
S1297      H1300   1.405       .  S
S1298      H1299   1.407       .  S
C1303      C1340   1.461       .  S
C1303      C1508   1.483       .  S
N1304      N1321   1.325       .  A
N1304     Co1558   2.087       .  S
C1305      C1343   1.461       .  S
C1305      N1330   1.339       .  A
C1305      H1350   1.081       .  S
H1306      C1347   1.081       .  S
C1307      N1331   1.342       .  A
C1307      H1336   1.081       .  S
Co1308     N1543   2.076   1_554  S
Co1308     N1533   2.087   1_554  S
Co1308     N1348   2.080       .  S
Co1308     N1324   2.083       .  S
N1309      C1347   1.340       .  A
N1309     Co1310   2.085       .  S
Co1310     N1313   2.071       .  S
Co1310     N1547   2.075       .  S
Co1310     N1534   2.085       .  S
C1311      C1484   1.479       .  S
C1311      N1349   1.346   1_455  A
N1312      N1342   1.325       .  A
N1312     Co1345   2.093       .  S
N1313      N1349   1.322       .  A
N1314      N1324   1.324       .  A
H1315      C1340   1.080       .  S
N1316      N1337   1.324       .  A
N1316     Co1525   2.087       .  S
N1317      N1322   1.324       .  A
N1317     Co1527   2.085       .  S
C1318      C1346   1.467       .  S
N1319      C1334   1.342       .  A
N1319     Co1558   2.093       .  S
C1320      N1348   1.337       .  A
C1320      H1354   1.079       .  S
C1323      N1344   1.356       .  A
N1325      C1351   1.339       .  A
N1325     Co1341   2.075       .  S
N1326      C1340   1.338       .  A
N1326     Co1525   2.076       .  S
N1327      N1355   1.325       .  A
N1327     Co1562   2.087       .  S
H1328      C1351   1.081       .  S
H1329      C1346   1.081       .  S
N1330     Co1527   2.075       .  S
N1331     Co1345   2.087       .  S
N1332      N1344   1.327       .  A
N1332     Co1341   2.095       .  S
C1333      C1463   1.492       .  S
C1333      N1337   1.352   1_545  A
C1334      C1353   1.463       .  S
C1334      H1338   1.082       .  S
N1335      C1346   1.342       .  A
N1335     Co1562   2.093       .  S
C1339      N1355   1.351       .  A
Co1341     N1521   2.087   1_554  S
Co1341     N1536   2.093   1_554  S
Co1345     N1544   2.087       .  S
Co1345     N1552   2.093       .  S
Co1345    Cl1569   2.453       .  S
Cl1352    Co1562   2.453       .  S
C1353      C1439   1.486       .  S
N1356      C1361   1.354       .  A
N1356      C1360   1.354       .  A
N1356      H1388   1.033   1_655  S
N1357      C1364   1.351   1_655  A
N1357      C1365   1.350   1_655  A
N1358      C1363   1.352       .  A
N1358      C1362   1.353       .  A
N1358      H1389   1.034   1_655  S
N1359      C1366   1.354       .  A
N1359      C1367   1.354       .  A
C1360      C1368   1.384       .  A
C1360      C1376   1.415   1_655  A
C1361      C1377   1.422       .  A
C1361      C1369   1.390       .  A
C1362      C1370   1.386       .  A
C1362      C1379   1.414       .  A
C1363      C1378   1.417       .  A
C1363      C1371   1.388       .  A
C1364      C1376   1.411       .  A
C1364      C1372   1.386       .  A
C1365      C1379   1.413   1_455  A
C1365      C1373   1.387       .  A
C1366      C1374   1.387   1_655  A
C1366      C1377   1.421       .  A
C1367      C1375   1.385   1_655  A
C1367      C1378   1.419       .  A
C1368      H1380   1.082       .  S
C1368      C1369   1.373       .  A
C1369      H1381   1.081       .  S
C1370      H1382   1.082       .  S
C1370      C1371   1.376       .  A
C1371      H1383   1.082       .  S
C1372      H1384   1.082       .  S
C1372      C1373   1.371       .  A
C1373      H1385   1.082       .  S
C1374      H1386   1.082       .  S
C1374      C1375   1.374       .  A
C1375      H1387   1.082       .  S
C1376      C1511   1.487       .  S
C1377      C1496   1.494       .  S
C1378      C1475   1.492       .  S
C1379      C1487   1.485       .  S
N1390      C1395   1.352   1_545  A
N1390      C1394   1.354   1_545  A
N1390      H1422   1.036       .  S
N1391      C1398   1.351       .  A
N1391      C1399   1.351       .  A
N1392      C1397   1.353   1_545  A
N1392      C1396   1.352   1_545  A
N1392      H1423   1.036       .  S
N1393      C1400   1.352   1_565  A
N1393      C1401   1.353   1_565  A
C1394      C1402   1.387       .  A
C1394      C1410   1.416       .  A
C1395      C1411   1.417       .  A
C1395      C1403   1.388       .  A
C1396      C1404   1.386       .  A
C1396      C1413   1.414   1_565  A
C1397      C1412   1.416   1_565  A
C1397      C1405   1.388       .  A
C1398      C1410   1.415   1_545  A
C1398      C1406   1.387       .  A
C1399      C1413   1.413       .  A
C1399      C1407   1.386       .  A
C1400      C1408   1.386       .  A
C1400      C1411   1.416   1_545  A
C1401      C1409   1.386       .  A
C1401      C1412   1.417       .  A
C1402      H1414   1.082       .  S
C1402      C1403   1.376       .  A
C1403      H1415   1.082       .  S
C1404      H1416   1.082       .  S
C1404      C1405   1.374       .  A
C1405      H1417   1.082       .  S
C1406      H1418   1.082       .  S
C1406      C1407   1.371       .  A
C1407      H1419   1.082       .  S
C1408      H1420   1.082       .  S
C1408      C1409   1.374       .  A
C1409      H1421   1.082       .  S
C1410      C1427   1.490       .  S
C1411      C1436   1.489       .  S
C1412      C1460   1.489       .  S
C1413      C1451   1.485       .  S
C1424      C1429   1.414       .  A
C1425      H1434   1.083       .  S
C1425      C1426   1.399       .  A
C1426      S1430   1.803       .  S
C1427      C1428   1.404       .  A
C1428      H1435   1.084       .  S
C1428      C1429   1.398       .  A
C1429      S1431   1.803       .  S
S1430      H1433   1.405       .  S
S1431      H1432   1.407       .  S
C1436      C1441   1.412       .  A
C1437      H1446   1.084       .  S
C1437      C1438   1.399       .  A
C1438      S1442   1.801       .  S
C1439      C1440   1.407       .  A
C1440      H1447   1.083       .  S
C1440      C1441   1.402       .  A
C1441      S1443   1.804       .  S
S1442      H1445   1.407       .  S
S1443      H1444   1.405       .  S
C1448      C1453   1.417   1_545  A
C1449      H1458   1.083       .  S
C1449      C1450   1.399       .  A
C1450      S1454   1.805       .  S
C1451      C1452   1.400   1_545  A
C1452      H1459   1.084       .  S
C1452      C1453   1.398       .  A
C1453      S1455   1.801       .  S
S1454      H1457   1.405       .  S
S1455      H1456   1.408       .  S
C1460      C1461   1.401   1_545  A
C1461      H1470   1.084       .  S
C1461      C1462   1.400       .  A
C1462      C1463   1.419   1_565  A
C1462      S1466   1.801       .  S
C1464      H1471   1.081       .  S
C1464      C1465   1.400       .  A
C1465      S1467   1.805       .  S
S1466      H1469   1.408       .  S
S1467      H1468   1.405       .  S
C1472      C1473   1.408       .  A
C1473      H1482   1.084       .  S
C1473      C1474   1.401       .  A
C1474      C1475   1.412       .  A
C1474      S1478   1.804       .  S
C1476      H1483   1.084       .  S
C1476      C1477   1.400       .  A
C1477      S1479   1.801       .  S
S1478      H1481   1.405       .  S
S1479      H1480   1.407       .  S
C1484      C1489   1.417   1_455  A
C1485      H1494   1.082       .  S
C1485      C1486   1.398       .  A
C1486      S1490   1.804       .  S
C1487      C1488   1.401       .  A
C1488      H1495   1.084       .  S
C1488      C1489   1.397       .  A
C1489      S1491   1.803       .  S
S1490      H1493   1.405       .  S
S1491      H1492   1.408       .  S
C1496      C1497   1.402       .  A
C1497      H1506   1.084       .  S
C1497      C1498   1.399       .  A
C1498      C1499   1.419       .  A
C1498      S1502   1.802       .  S
C1500      H1507   1.083       .  S
C1500      C1501   1.402       .  A
C1501      S1503   1.805       .  S
S1502      H1505   1.408       .  S
S1503      H1504   1.406       .  S
C1508      C1513   1.418       .  A
C1509      H1518   1.084       .  S
C1509      C1510   1.400       .  A
C1510      S1514   1.804       .  S
C1511      C1512   1.400   1_455  A
C1512      H1519   1.084       .  S
C1512      C1513   1.398       .  A
C1513      S1515   1.801       .  S
S1514      H1517   1.405       .  S
S1515      H1516   1.407       .  S
C1520      C1557   1.461       .  S
C1520      C1725   1.483       .  S
N1521      N1538   1.325       .  A
C1522      C1560   1.461       .  S
C1522      N1547   1.339       .  A
C1522      H1567   1.081       .  S
H1523      C1564   1.081       .  S
C1524      N1548   1.342       .  A
C1524      H1553   1.081       .  S
Co1525     N1565   2.080       .  S
Co1525     N1541   2.083       .  S
N1526      C1564   1.340       .  A
N1526     Co1527   2.085   1_556  S
Co1527     N1530   2.071   1_554  S
C1528      C1701   1.479       .  S
C1528      N1566   1.346   1_455  A
N1529      N1559   1.325       .  A
N1529     Co1562   2.093   1_556  S
N1530      N1566   1.322       .  A
N1531      N1541   1.324       .  A
H1532      C1557   1.080       .  S
N1533      N1554   1.324       .  A
N1534      N1539   1.324       .  A
C1535      C1563   1.467       .  S
N1536      C1551   1.342       .  A
C1537      N1565   1.337       .  A
C1537      H1571   1.079       .  S
C1540      N1561   1.356       .  A
N1542      C1568   1.339       .  A
N1542     Co1558   2.075       .  S
N1543      C1557   1.338       .  A
N1544      N1572   1.325       .  A
H1545      C1568   1.081       .  S
H1546      C1563   1.081       .  S
N1548     Co1562   2.087   1_556  S
N1549      N1561   1.327       .  A
N1549     Co1558   2.095       .  S
C1550      C1680   1.492       .  S
C1550      N1554   1.352   1_545  A
C1551      C1570   1.463       .  S
C1551      H1555   1.082       .  S
N1552      C1563   1.342       .  A
C1556      N1572   1.351       .  A
C1570      C1656   1.486       .  S
N1573      C1578   1.354       .  A
N1573      C1577   1.354       .  A
N1573      H1605   1.033   1_655  S
N1574      C1581   1.351   1_655  A
N1574      C1582   1.350   1_655  A
N1575      C1580   1.352       .  A
N1575      C1579   1.353       .  A
N1575      H1606   1.034   1_655  S
N1576      C1583   1.354       .  A
N1576      C1584   1.354       .  A
C1577      C1585   1.384       .  A
C1577      C1593   1.415   1_655  A
C1578      C1594   1.422       .  A
C1578      C1586   1.390       .  A
C1579      C1587   1.386       .  A
C1579      C1596   1.414       .  A
C1580      C1595   1.417       .  A
C1580      C1588   1.388       .  A
C1581      C1593   1.411       .  A
C1581      C1589   1.386       .  A
C1582      C1596   1.413   1_455  A
C1582      C1590   1.387       .  A
C1583      C1591   1.387   1_655  A
C1583      C1594   1.421       .  A
C1584      C1592   1.385   1_655  A
C1584      C1595   1.419       .  A
C1585      H1597   1.082       .  S
C1585      C1586   1.373       .  A
C1586      H1598   1.081       .  S
C1587      H1599   1.082       .  S
C1587      C1588   1.376       .  A
C1588      H1600   1.082       .  S
C1589      H1601   1.082       .  S
C1589      C1590   1.371       .  A
C1590      H1602   1.082       .  S
C1591      H1603   1.082       .  S
C1591      C1592   1.374       .  A
C1592      H1604   1.082       .  S
C1593      C1728   1.487       .  S
C1594      C1713   1.494       .  S
C1595      C1692   1.492       .  S
C1596      C1704   1.485       .  S
N1607      C1612   1.352   1_545  A
N1607      C1611   1.354   1_545  A
N1607      H1639   1.036       .  S
N1608      C1615   1.351       .  A
N1608      C1616   1.351       .  A
N1609      C1614   1.353   1_545  A
N1609      C1613   1.352   1_545  A
N1609      H1640   1.036       .  S
N1610      C1617   1.352   1_565  A
N1610      C1618   1.353   1_565  A
C1611      C1619   1.387       .  A
C1611      C1627   1.416       .  A
C1612      C1628   1.417       .  A
C1612      C1620   1.388       .  A
C1613      C1621   1.386       .  A
C1613      C1630   1.414   1_565  A
C1614      C1629   1.416   1_565  A
C1614      C1622   1.388       .  A
C1615      C1627   1.415   1_545  A
C1615      C1623   1.387       .  A
C1616      C1630   1.413       .  A
C1616      C1624   1.386       .  A
C1617      C1625   1.386       .  A
C1617      C1628   1.416   1_545  A
C1618      C1626   1.386       .  A
C1618      C1629   1.417       .  A
C1619      H1631   1.082       .  S
C1619      C1620   1.376       .  A
C1620      H1632   1.082       .  S
C1621      H1633   1.082       .  S
C1621      C1622   1.374       .  A
C1622      H1634   1.082       .  S
C1623      H1635   1.082       .  S
C1623      C1624   1.371       .  A
C1624      H1636   1.082       .  S
C1625      H1637   1.082       .  S
C1625      C1626   1.374       .  A
C1626      H1638   1.082       .  S
C1627      C1644   1.490       .  S
C1628      C1653   1.489       .  S
C1629      C1677   1.489       .  S
C1630      C1668   1.485       .  S
C1641      C1646   1.414       .  A
C1642      H1651   1.083       .  S
C1642      C1643   1.399       .  A
C1643      S1647   1.803       .  S
C1644      C1645   1.404       .  A
C1645      H1652   1.084       .  S
C1645      C1646   1.398       .  A
C1646      S1648   1.803       .  S
S1647      H1650   1.405       .  S
S1648      H1649   1.407       .  S
C1653      C1658   1.412       .  A
C1654      H1663   1.084       .  S
C1654      C1655   1.399       .  A
C1655      S1659   1.801       .  S
C1656      C1657   1.407       .  A
C1657      H1664   1.083       .  S
C1657      C1658   1.402       .  A
C1658      S1660   1.804       .  S
S1659      H1662   1.407       .  S
S1660      H1661   1.405       .  S
C1665      C1670   1.417   1_545  A
C1666      H1675   1.083       .  S
C1666      C1667   1.399       .  A
C1667      S1671   1.805       .  S
C1668      C1669   1.400   1_545  A
C1669      H1676   1.084       .  S
C1669      C1670   1.398       .  A
C1670      S1672   1.801       .  S
S1671      H1674   1.405       .  S
S1672      H1673   1.408       .  S
C1677      C1678   1.401   1_545  A
C1678      H1687   1.084       .  S
C1678      C1679   1.400       .  A
C1679      C1680   1.419   1_565  A
C1679      S1683   1.801       .  S
C1681      H1688   1.081       .  S
C1681      C1682   1.400       .  A
C1682      S1684   1.805       .  S
S1683      H1686   1.408       .  S
S1684      H1685   1.405       .  S
C1689      C1690   1.408       .  A
C1690      H1699   1.084       .  S
C1690      C1691   1.401       .  A
C1691      C1692   1.412       .  A
C1691      S1695   1.804       .  S
C1693      H1700   1.084       .  S
C1693      C1694   1.400       .  A
C1694      S1696   1.801       .  S
S1695      H1698   1.405       .  S
S1696      H1697   1.407       .  S
C1701      C1706   1.417   1_455  A
C1702      H1711   1.082       .  S
C1702      C1703   1.398       .  A
C1703      S1707   1.804       .  S
C1704      C1705   1.401       .  A
C1705      H1712   1.084       .  S
C1705      C1706   1.397       .  A
C1706      S1708   1.803       .  S
S1707      H1710   1.405       .  S
S1708      H1709   1.408       .  S
C1713      C1714   1.402       .  A
C1714      H1723   1.084       .  S
C1714      C1715   1.399       .  A
C1715      C1716   1.419       .  A
C1715      S1719   1.802       .  S
C1717      H1724   1.083       .  S
C1717      C1718   1.402       .  A
C1718      S1720   1.805       .  S
S1719      H1722   1.408       .  S
S1720      H1721   1.406       .  S
C1725      C1730   1.418       .  A
C1726      H1735   1.084       .  S
C1726      C1727   1.400       .  A
C1727      S1731   1.804       .  S
C1728      C1729   1.400   1_455  A
C1729      H1736   1.084       .  S
C1729      C1730   1.398       .  A
C1730      S1732   1.801       .  S
S1731      H1734   1.405       .  S
S1732      H1733   1.407       .  S
