geometry optimzed in LAMMPS
_audit_creation_date              2020-12-01 
_audit_creation_method            'lammps2cif' 
_symmetry_space_group_name_H-M    'P1' 
_symmetry_Int_Tables_number       1 
_symmetry_cell_setting            triclinic 
loop_ 
_symmetry_equiv_pos_as_xyz 
  x,y,z 
_cell_length_a                    46.23453457 
_cell_length_b                    46.12360289096947 
_cell_length_c                    47.89434837177085 
_cell_angle_alpha                 89.95200716844778 
_cell_angle_beta                  89.93538489990026 
_cell_angle_gamma                 90.10546672903114 
loop_ 
_atom_site_label 
_atom_site_type_symbol 
_atom_site_fract_x 
_atom_site_fract_y 
_atom_site_fract_z 
_atom_site_charge 
O1          O  0.23226752  0.73041583  0.20799593    -0.72600
O2          O  0.24146782  0.80585593  0.24938634    -0.73600
O3          O  0.27518880  0.77475737  0.20954723    -0.62200
O4          O  0.19912147  0.76116862  0.24808582    -0.70700
O5          O  0.22180774  0.73819798  0.28223077    -0.70200
O6          O  0.29760527  0.75129405  0.24357384    -0.61500
O7          O  0.26428184  0.78252548  0.28321925    -0.74000
O8          O  0.25473459  0.70760722  0.24236376    -0.72800
Cu9        Cu  0.23622218  0.76886824  0.22753095     1.04600
Cu10       Cu  0.26037797  0.74414738  0.26400346     1.04300
C11         C  0.24192252  0.70699222  0.21874674     0.93500
C12         C  0.25436751  0.80610352  0.27296851     0.92700
C13         C  0.29849047  0.76497505  0.22040516     0.84800
C14         C  0.19841409  0.74747378  0.27131183     0.91100
N15         N  0.45488279  0.78629880  0.15567179    -0.27000
N16         N  0.44126159  0.79296811  0.13229852    -0.34900
C17         C  0.41262765  0.79360235  0.13720044     0.01300
C18         C  0.40793605  0.78703099  0.16505860     0.07400
C19         C  0.43525073  0.78240607  0.17605639    -0.05700
H20         H  0.39647712  0.79701003  0.12126970     0.08000
H21         H  0.44045804  0.77600689  0.19721097     0.09200
Cu22       Cu  0.46186111  0.79817806  0.09424264     0.44200
Cu23       Cu  0.49935846  0.78117268  0.15845060     0.42000
Cu24       Cu  0.53966745  0.79430033  0.09442947     0.43900
N25         N  0.48673431  0.79931076  0.05832404    -0.34400
N26         N  0.51529962  0.79824299  0.05832211    -0.28600
C27         C  0.52475113  0.79726121  0.03176559    -0.04700
C28         C  0.50093686  0.79756322  0.01428876     0.07500
C29         C  0.47721546  0.79894671  0.03181904     0.01300
H30         H  0.54720061  0.79515585  0.02572218     0.08900
H31         H  0.45465802  0.79860119  0.02584886     0.08000
N32         N  0.55861650  0.78405085  0.13237330    -0.35800
N33         N  0.54402152  0.77829178  0.15548883    -0.28000
C34         C  0.56281082  0.77152558  0.17592368    -0.03200
C35         C  0.59054197  0.77321132  0.16511472     0.05400
C36         C  0.58702610  0.78138231  0.13754012     0.03500
H37         H  0.55672254  0.76678102  0.19724462     0.08600
H38         H  0.60394138  0.78511944  0.12228713     0.07400
N39         N  0.54527599  0.76652151  0.84374238    -0.27000
N40         N  0.55957818  0.77274023  0.86682407    -0.34900
C41         C  0.58808137  0.77282278  0.86125947     0.01300
C42         C  0.59195963  0.76657401  0.83316313     0.07400
C43         C  0.56423975  0.76260957  0.82284478    -0.05700
H44         H  0.60456113  0.77626598  0.87684245     0.08000
H45         H  0.55818021  0.75718641  0.80166769     0.09200
Cu46       Cu  0.53968622  0.78036510  0.90484359     0.44200
Cu47       Cu  0.50076440  0.76299222  0.84162533     0.42000
Cu48       Cu  0.46133000  0.77829552  0.90521044     0.43900
N49         N  0.51482031  0.78709275  0.94019705    -0.34400
N50         N  0.48622606  0.78650771  0.94038231    -0.28600
C51         C  0.47685953  0.79081388  0.96665313    -0.04700
C52         C  0.50072966  0.79417894  0.98376070     0.07500
C53         C  0.52441660  0.79172434  0.96630388     0.01300
H54         H  0.45436676  0.79076293  0.97289701     0.08900
H55         H  0.54698761  0.79263980  0.97217061     0.08000
N56         N  0.44171856  0.76824966  0.86746692    -0.35800
N57         N  0.45615755  0.76221605  0.84437459    -0.28000
C58         C  0.43728676  0.75725890  0.82357602    -0.03200
C59         C  0.40954141  0.76032518  0.83406656     0.05400
C60         C  0.41324090  0.76741827  0.86194052     0.03500
H61         H  0.44345674  0.75304683  0.80221389     0.08600
H62         H  0.39645552  0.77200342  0.87706321     0.07400
N63         N  0.95393327  0.73065894  0.34434857    -0.27000
N64         N  0.94020474  0.72726301  0.36829793    -0.34900
C65         C  0.91154446  0.72871606  0.36379414     0.01300
C66         C  0.90696436  0.73302081  0.33545382     0.07400
C67         C  0.93445865  0.73418342  0.32391718    -0.05700
H68         H  0.89558143  0.72741951  0.38016283     0.08000
H69         H  0.94005099  0.73728748  0.30217977     0.09200
Cu70       Cu  0.96133218  0.72069681  0.40569427     0.44200
Cu71       Cu  0.99841184  0.73124368  0.34035664     0.42000
Cu72       Cu  0.03993698  0.71927995  0.40312568     0.43900
N73         N  0.98739840  0.71398361  0.44003638    -0.34400
N74         N  0.01598328  0.71345102  0.43931300    -0.28600
C75         C  0.02603112  0.70998411  0.46545580    -0.04700
C76         C  0.00258311  0.70828522  0.48333986     0.07500
C77         C  0.97848037  0.71081226  0.46653548     0.01300
H78         H  0.04868786  0.70955558  0.47105234     0.08900
H79         H  0.95608957  0.71119380  0.47309801     0.08000
N80         N  0.05826815  0.72754993  0.36440559    -0.35800
N81         N  0.04306132  0.73214210  0.34150004    -0.28000
C82         C  0.06121689  0.73703714  0.32005580    -0.03200
C83         C  0.08931325  0.73553563  0.32994955     0.05400
C84         C  0.08654065  0.72932012  0.35814242     0.03500
H85         H  0.05431982  0.74058333  0.29881626     0.08600
H86         H  0.10382983  0.72640236  0.37309502     0.07400
N87         N  0.04597661  0.71950899  0.65650086    -0.27000
N88         N  0.06033515  0.71735356  0.63272161    -0.34900
C89         C  0.08872410  0.72053841  0.63773498     0.01300
C90         C  0.09259833  0.72525935  0.66605040     0.07400
C91         C  0.06495754  0.72417400  0.67730335    -0.05700
H92         H  0.10520593  0.71896334  0.62181813     0.08000
H93         H  0.05899374  0.72696430  0.69898190     0.09200
Cu94       Cu  0.04127246  0.71112585  0.59411509     0.44200
Cu95       Cu  0.00122219  0.71681289  0.65941594     0.42000
Cu96       Cu  0.96364807  0.71095073  0.59344120     0.43900
N97         N  0.01711940  0.70784006  0.55792197    -0.34400
N98         N  0.98854723  0.70783565  0.55785626    -0.28600
C99         C  0.97909384  0.70708821  0.53138795    -0.04700
C100        C  0.00288468  0.70670315  0.51393018     0.07500
C101        C  0.02668231  0.70712469  0.53139588     0.01300
H102        H  0.95656362  0.70772157  0.52536187     0.08900
H103        H  0.04921769  0.70783841  0.52532499     0.08000
N104        N  0.94295017  0.71460202  0.63140811    -0.35800
N105        N  0.95647817  0.71619870  0.65561142    -0.28000
C106        C  0.93670049  0.71891617  0.67602321    -0.03200
C107        C  0.90930315  0.71913047  0.66411163     0.05400
C108        C  0.91431433  0.71648917  0.63567547     0.03500
H109        H  0.94201896  0.72099893  0.69791360     0.08600
H110        H  0.89871696  0.71706688  0.61901011     0.07400
O111        O  0.27710890  0.76543728  0.78664604    -0.72600
O112        O  0.20095355  0.75053682  0.74915620    -0.73600
O113        O  0.23580376  0.72019869  0.78778525    -0.62200
O114        O  0.24225996  0.79591570  0.74779933    -0.70700
O115        O  0.26594073  0.77469851  0.71322412    -0.70200
O116        O  0.25653824  0.69788181  0.75196450    -0.61500
O117        O  0.22379947  0.73057144  0.71316204    -0.74000
O118        O  0.29909068  0.74234292  0.75209471    -0.72800
Cu119      Cu  0.23823214  0.75880450  0.76905608     1.04600
Cu120      Cu  0.26216586  0.73561413  0.73140562     1.04300
C121        C  0.30021103  0.75569853  0.77543948     0.93500
C122        C  0.20048594  0.73857962  0.72511372     0.92700
C123        C  0.24495961  0.69703516  0.77619835     0.84800
C124        C  0.25505998  0.79745242  0.72417908     0.91100
N125        N  0.54436616  0.22706066  0.15834454    -0.27000
N126        N  0.55869702  0.21686652  0.13663953    -0.34900
C127        C  0.58688870  0.21557146  0.14315641     0.01300
C128        C  0.59052468  0.22555420  0.17028951     0.07400
C129        C  0.56293725  0.23269888  0.17916758    -0.05700
H130        H  0.60356237  0.20842761  0.12887970     0.08000
H131        H  0.55663150  0.24234172  0.19873768     0.09200
Cu132      Cu  0.53955930  0.20770441  0.09847740     0.44200
Cu133      Cu  0.50036896  0.23255729  0.15905832     0.42000
Cu134      Cu  0.46140920  0.20818965  0.09822402     0.43900
N135        N  0.51487966  0.20449763  0.06244338    -0.34400
N136        N  0.48628341  0.20425624  0.06248302    -0.28600
C137        C  0.47675792  0.20405812  0.03598159    -0.04700
C138        C  0.50048981  0.20443165  0.01841122     0.07500
C139        C  0.52432177  0.20464165  0.03585633     0.01300
H140        H  0.45421865  0.20490814  0.03000603     0.08900
H141        H  0.54682596  0.20577452  0.02973635     0.08000
N142        N  0.44189751  0.21877344  0.13574887    -0.35800
N143        N  0.45621475  0.22863530  0.15760037    -0.28000
C144        C  0.43750769  0.23480859  0.17816700    -0.03200
C145        C  0.40990305  0.22835630  0.16892359     0.05400
C146        C  0.41356637  0.21834164  0.14185351     0.03500
H147        H  0.44374376  0.24414312  0.19790491     0.08600
H148        H  0.39686337  0.21152468  0.12745885     0.07400
N149        N  0.45390360  0.21128119  0.84584776    -0.27000
N150        N  0.43972886  0.20876367  0.86970016    -0.34900
C151        C  0.41114218  0.20982623  0.86456268     0.01300
C152        C  0.40717746  0.21326891  0.83607393     0.07400
C153        C  0.43479884  0.21411364  0.82495270    -0.05700
H154        H  0.39469206  0.21015936  0.88058726     0.08000
H155        H  0.44066019  0.21787285  0.80335889     0.09200
Cu156      Cu  0.45999664  0.20771993  0.90827557     0.44200
Cu157      Cu  0.49836657  0.21474026  0.84271614     0.42000
Cu158      Cu  0.53747869  0.21972096  0.90778064     0.43900
N159        N  0.48531579  0.20847705  0.94396609    -0.34400
N160        N  0.51361403  0.21268632  0.94382686    -0.28600
C161        C  0.52347007  0.21158869  0.97022849    -0.04700
C162        C  0.50021219  0.20656911  0.98777587     0.07500
C163        C  0.47637867  0.20477827  0.97044981     0.01300
H164        H  0.54585474  0.21448625  0.97617337     0.08900
H165        H  0.45415578  0.20104081  0.97658437     0.08000
N166        N  0.55662392  0.22414610  0.86886082    -0.35800
N167        N  0.54243891  0.22190421  0.84504080    -0.28000
C168        C  0.56118715  0.22474352  0.82372110    -0.03200
C169        C  0.58860261  0.22909425  0.83464954     0.05400
C170        C  0.58477594  0.22849822  0.86335769     0.03500
H171        H  0.55524662  0.22272368  0.80203701     0.08600
H172        H  0.60130884  0.23077523  0.87918899     0.07400
N173        N  0.22303682  0.54828545  0.15660148    -0.27000
N174        N  0.21936712  0.56198402  0.13263794    -0.34900
C175        C  0.22320007  0.59053305  0.13661452     0.01300
C176        C  0.22973251  0.59522022  0.16444820     0.07400
C177        C  0.22934022  0.56785389  0.17652706    -0.05700
H178        H  0.22114486  0.60672208  0.12036863     0.08000
H179        H  0.23233569  0.56251580  0.19828104     0.09200
Cu180      Cu  0.20862004  0.54173884  0.09561151     0.44200
Cu181      Cu  0.21850769  0.50370177  0.16092785     0.42000
Cu182      Cu  0.20046407  0.46427930  0.09746841     0.43900
N183        N  0.19941328  0.51698475  0.06080784    -0.34400
N184        N  0.19640312  0.48850439  0.06146472    -0.28600
C185        C  0.19275630  0.47865279  0.03530556    -0.04700
C186        C  0.19358701  0.50212173  0.01737572     0.07500
C187        C  0.19773587  0.52608765  0.03422105     0.01300
H188        H  0.19096078  0.45600162  0.02971792     0.08900
H189        H  0.20065180  0.54833272  0.02760702     0.08000
N190        N  0.20813117  0.44470424  0.13550269    -0.35800
N191        N  0.21445120  0.45891492  0.15864255    -0.28000
C192        C  0.21952149  0.43963046  0.17909385    -0.03200
C193        C  0.21632538  0.41186427  0.16834731     0.05400
C194        C  0.20918689  0.41607729  0.14053737     0.03500
H195        H  0.22575123  0.44549258  0.20010965     0.08600
H196        H  0.20641335  0.39980574  0.12460530     0.07400
N197        N  0.22590045  0.45399700  0.84935613    -0.27000
N198        N  0.21549531  0.44010554  0.87134505    -0.34900
C199        C  0.21493633  0.41150108  0.86588972     0.01300
C200        C  0.22547738  0.40719075  0.83912717     0.07400
C201        C  0.23229911  0.43462397  0.82938795    -0.05700
H202        H  0.20842592  0.39513222  0.88076227     0.08000
H203        H  0.24145859  0.44013864  0.80925756     0.09200
Cu204      Cu  0.20428294  0.46035814  0.90837466     0.44200
Cu205      Cu  0.23171820  0.49852070  0.84714362     0.42000
Cu206      Cu  0.21189406  0.53857313  0.90817396     0.43900
N207        N  0.19823887  0.48611722  0.94328139    -0.34400
N208        N  0.20100851  0.51464537  0.94301083    -0.28600
C209        C  0.19840919  0.52475959  0.96915590    -0.04700
C210        C  0.19391699  0.50147692  0.98676503     0.07500
C211        C  0.19380294  0.47729244  0.96971009     0.01300
H212        H  0.20112409  0.54724794  0.97500687     0.08900
H213        H  0.19214673  0.45486265  0.97614082     0.08000
N214        N  0.22602923  0.55802956  0.87186995    -0.35800
N215        N  0.23373394  0.54335909  0.84943377    -0.28000
C216        C  0.24100368  0.56219655  0.82917749    -0.03200
C217        C  0.23774695  0.59018642  0.83935944     0.05400
C218        C  0.22807990  0.58655143  0.86655558     0.03500
H219        H  0.24757684  0.55589182  0.80837205     0.08600
H220        H  0.22161695  0.60316467  0.88111219     0.07400
N221        N  0.04629208  0.27032252  0.34338640    -0.27000
N222        N  0.06041886  0.27164763  0.36734038    -0.34900
C223        C  0.08888620  0.26899751  0.36243928     0.01300
C224        C  0.09297113  0.26589457  0.33402082     0.07400
C225        C  0.06553973  0.26711321  0.32251514    -0.05700
H226        H  0.10538512  0.26996865  0.37839877     0.08000
H227        H  0.05996573  0.26548120  0.30064023     0.09200
Cu228      Cu  0.04096414  0.27726200  0.40579350     0.44200
Cu229      Cu  0.00148195  0.27186319  0.34048483     0.42000
Cu230      Cu  0.96335097  0.27338645  0.40666293     0.43900
N231        N  0.01665796  0.28067607  0.44183679    -0.34400
N232        N  0.98814828  0.27871875  0.44210022    -0.28600
C233        C  0.97872587  0.28057677  0.46855432    -0.04700
C234        C  0.00247890  0.28388602  0.48574746     0.07500
C235        C  0.02620380  0.28392465  0.46816265     0.01300
H236        H  0.95626259  0.27923088  0.47476875     0.08900
H237        H  0.04873355  0.28552121  0.47404821     0.08000
N238        N  0.94294030  0.27119606  0.36841913    -0.35800
N239        N  0.95670486  0.27110265  0.34423964    -0.28000
C240        C  0.93712471  0.26965155  0.32356993    -0.03200
C241        C  0.90965233  0.26890329  0.33526398     0.05400
C242        C  0.91431262  0.26975332  0.36382619     0.03500
H243        H  0.94256583  0.26906855  0.30159640     0.08600
H244        H  0.89837544  0.26852601  0.38023344     0.07400
N245        N  0.04470505  0.27756782  0.65930074    -0.27000
N246        N  0.05922132  0.28211384  0.63589437    -0.34900
C247        C  0.08772066  0.28109420  0.64131708     0.01300
C248        C  0.09153002  0.27527876  0.66943651     0.07400
C249        C  0.06369806  0.27335883  0.68021873    -0.05700
H250        H  0.10448626  0.28354698  0.62569578     0.08000
H251        H  0.05757997  0.26935475  0.70164003     0.09200
Cu252      Cu  0.04013289  0.28707419  0.59702397     0.44200
Cu253      Cu  0.99967670  0.27607312  0.66149114     0.42000
Cu254      Cu  0.96270126  0.27681261  0.59528899     0.43900
N255        N  0.01610215  0.28646807  0.56050650    -0.34400
N256        N  0.98777539  0.28258905  0.56012431    -0.28600
C257        C  0.97862768  0.28183705  0.53356062    -0.04700
C258        C  0.00234603  0.28524416  0.51634414     0.07500
C259        C  0.02579589  0.28816867  0.53405020     0.01300
H260        H  0.95642958  0.27825821  0.52731728     0.08900
H261        H  0.04827483  0.29061136  0.52819576     0.08000
N262        N  0.94157799  0.27261105  0.63299071    -0.35800
N263        N  0.95490141  0.27293439  0.65734640    -0.28000
C264        C  0.93501200  0.27018629  0.67767918    -0.03200
C265        C  0.90775373  0.26798907  0.66558381     0.05400
C266        C  0.91298566  0.26945165  0.63708691     0.03500
H267        H  0.94012389  0.26986790  0.69970957     0.08600
H268        H  0.89754708  0.26768275  0.62033383     0.07400
N269        N  0.27996596  0.04901440  0.34630475    -0.27000
N270        N  0.28426713  0.06321647  0.36989428    -0.34900
C271        C  0.28358370  0.09189182  0.36469175     0.01300
C272        C  0.27865847  0.09596085  0.33639360     0.07400
C273        C  0.27640088  0.06823125  0.32551012    -0.05700
H274        H  0.28526402  0.10837251  0.38059644     0.08000
H275        H  0.27209786  0.06238450  0.30403075     0.09200
Cu276      Cu  0.28896093  0.04287953  0.40827766     0.44200
Cu277      Cu  0.27789039  0.00419921  0.34324406     0.42000
Cu278      Cu  0.28636345  0.96403198  0.40701995     0.43900
N279        N  0.29053704  0.01700946  0.44369915    -0.34400
N280        N  0.28935320  0.98836330  0.44315521    -0.28600
C281        C  0.28912143  0.97825317  0.46947526    -0.04700
C282        C  0.29026302  0.00164230  0.48743244     0.07500
C283        C  0.29121973  0.02587946  0.47043391     0.01300
H284        H  0.28760485  0.95557003  0.47506048     0.08900
H285        H  0.29151016  0.04832707  0.47696073     0.08000
N286        N  0.28094783  0.94453637  0.36850430    -0.35800
N287        N  0.27733224  0.95926837  0.34511313    -0.28000
C288        C  0.27311680  0.94050162  0.32403584    -0.03200
C289        C  0.27440229  0.91255606  0.33461439     0.05400
C290        C  0.27927839  0.91601293  0.36295707     0.03500
H291        H  0.26928811  0.94676712  0.30257177     0.08600
H292        H  0.28043590  0.89922794  0.37863149     0.07400
N293        N  0.26239993  0.95523567  0.65834151    -0.27000
N294        N  0.26470465  0.94129751  0.63435932    -0.34900
C295        C  0.26187721  0.91273628  0.63905168     0.01300
C296        C  0.25748588  0.90841425  0.66735893     0.07400
C297        C  0.25803313  0.93591073  0.67895195    -0.05700
H298        H  0.26353259  0.89627244  0.62303998     0.08000
H299        H  0.25677979  0.94150742  0.70079449     0.09200
Cu300      Cu  0.27333249  0.96124425  0.59651488     0.44200
Cu301      Cu  0.26670176  0.99964868  0.66216944     0.42000
Cu302      Cu  0.28478349  0.03838689  0.59855060     0.43900
N303        N  0.28230863  0.98598061  0.56146532    -0.34400
N304        N  0.28653864  0.01431061  0.56225084    -0.28600
C305        C  0.29051539  0.02419429  0.53611781    -0.04700
C306        C  0.28878158  0.00091155  0.51805501     0.07500
C307        C  0.28363050  0.97700847  0.53480047     0.01300
H308        H  0.29381846  0.04672987  0.53068595     0.08900
H309        H  0.28032453  0.95485800  0.52809678     0.08000
N310        N  0.27748678  0.05823975  0.63654158    -0.35800
N311        N  0.27048635  0.04421911  0.65965507    -0.28000
C312        C  0.26565654  0.06354975  0.68010608    -0.03200
C313        C  0.26970971  0.09110060  0.66926163     0.05400
C314        C  0.27742082  0.08684615  0.64166422     0.03500
H315        H  0.25989491  0.05781566  0.70125090     0.08600
H316        H  0.28196068  0.10337453  0.62620163     0.07400
O317        O  0.22619913  0.27067272  0.71425472    -0.72600
O318        O  0.30167598  0.25595352  0.75430365    -0.73600
O319        O  0.26907912  0.22565432  0.71341437    -0.62200
O320        O  0.25949313  0.30071265  0.75546566    -0.70700
O321        O  0.23548888  0.27710022  0.78853532    -0.70200
O322        O  0.24528554  0.20299770  0.74719982    -0.61500
O323        O  0.27758624  0.23293220  0.78761506    -0.74000
O324        O  0.20303566  0.24717592  0.74785223    -0.72800
Cu325      Cu  0.26493987  0.26412585  0.73311000     1.04600
Cu326      Cu  0.23956188  0.23931279  0.76888427     1.04300
C327        C  0.20255910  0.26119167  0.72483960     0.93500
C328        C  0.30148145  0.24190095  0.77732772     0.92700
C329        C  0.25892410  0.20229975  0.72403076     0.84800
C330        C  0.24600556  0.30062211  0.77879182     0.91100
O331        O  0.27722993  0.23769105  0.21252530    -0.72600
O332        O  0.20228842  0.24683573  0.25291326    -0.73600
O333        O  0.23361781  0.28033790  0.21412420    -0.62200
O334        O  0.24582018  0.20372218  0.25206966    -0.70700
O335        O  0.26854244  0.22656069  0.28630165    -0.70200
O336        O  0.25598538  0.30314697  0.24858724    -0.61500
O337        O  0.22493810  0.26900327  0.28785848    -0.74000
O338        O  0.29979289  0.26020629  0.24720353    -0.72800
Cu339      Cu  0.23897596  0.24136684  0.23166805     1.04600
Cu340      Cu  0.26314369  0.26552185  0.26866275     1.04300
C341        C  0.30037205  0.24757243  0.22349904     0.93500
C342        C  0.20186779  0.25921669  0.27670981     0.92700
C343        C  0.24254151  0.30386575  0.22530966     0.84800
C344        C  0.25900202  0.20307960  0.27551609     0.91100
O345        O  0.77858421  0.26542745  0.28611986    -0.72600
O346        O  0.70210963  0.25586092  0.24823595    -0.73600
O347        O  0.73508946  0.22255565  0.28656615    -0.62200
O348        O  0.74589644  0.29919886  0.24818435    -0.70700
O349        O  0.76777359  0.27667934  0.21318921    -0.70200
O350        O  0.75577739  0.19964976  0.25110524    -0.61500
O351        O  0.72385527  0.23410629  0.21267468    -0.74000
O352        O  0.80023200  0.24242093  0.25139261    -0.72800
Cu353      Cu  0.73964314  0.26151747  0.26847375     1.04600
Cu354      Cu  0.76266612  0.23744714  0.23083917     1.04300
C355        C  0.80155640  0.25527240  0.27497648     0.93500
C356        C  0.70092619  0.24365909  0.22431946     0.92700
C357        C  0.74385217  0.19910035  0.27520188     0.84800
C358        C  0.75859275  0.30003818  0.22450081     0.91100
N359        N  0.77262782  0.54554683  0.15343834    -0.27000
N360        N  0.78298136  0.55959632  0.13151091    -0.34900
C361        C  0.78190000  0.58825996  0.13646875     0.01300
C362        C  0.77003825  0.59268912  0.16267745     0.07400
C363        C  0.76448697  0.56503579  0.17287368    -0.05700
H364        H  0.78926797  0.60473248  0.12199175     0.08000
H365        H  0.75615939  0.55939506  0.19323560     0.09200
Cu366      Cu  0.79780043  0.53952710  0.09544543     0.44200
Cu367      Cu  0.77144648  0.50038574  0.15616250     0.42000
Cu368      Cu  0.79998121  0.46149771  0.09619247     0.43900
N369        N  0.80725093  0.51466950  0.06049922    -0.34400
N370        N  0.80808151  0.48603119  0.06089653    -0.28600
C371        C  0.81154113  0.47619701  0.03469952    -0.04700
C372        C  0.81285901  0.49977831  0.01691371     0.07500
C373        C  0.81020145  0.52384551  0.03397198     0.01300
H374        H  0.81141473  0.45352990  0.02891894     0.08900
H375        H  0.80881579  0.54626329  0.02746357     0.08000
N376        N  0.78533661  0.44135948  0.13212260    -0.35800
N377        N  0.77435940  0.45530809  0.15373955    -0.28000
C378        C  0.76634594  0.43576784  0.17314061    -0.03200
C379        C  0.77248826  0.40808503  0.16331333     0.05400
C380        C  0.78471625  0.41269716  0.13720294     0.03500
H381        H  0.75673041  0.44141181  0.19299253     0.08600
H382        H  0.79329482  0.39674950  0.12304244     0.07400
N383        N  0.77720662  0.45146045  0.84927080    -0.27000
N384        N  0.78737297  0.43753162  0.87128538    -0.34900
C385        C  0.78786782  0.40892196  0.86578238     0.01300
C386        C  0.77760608  0.40456204  0.83890185     0.07400
C387        C  0.77091612  0.43208384  0.82921663    -0.05700
H388        H  0.79437852  0.39260131  0.88064250     0.08000
H389        H  0.76220122  0.43768635  0.80895550     0.09200
Cu390      Cu  0.79924704  0.45804653  0.90809808     0.44200
Cu391      Cu  0.77275729  0.49624115  0.84713431     0.42000
Cu392      Cu  0.79828506  0.53666748  0.90676790     0.43900
N393        N  0.80727858  0.48382415  0.94274674    -0.34400
N394        N  0.80704631  0.51248663  0.94219206    -0.28600
C395        C  0.81033420  0.52258152  0.96833021    -0.04700
C396        C  0.81265322  0.49915194  0.98620282     0.07500
C397        C  0.81074905  0.47492523  0.96927692     0.01300
H398        H  0.80954971  0.54526120  0.97401405     0.08900
H399        H  0.81038296  0.45249144  0.97587256     0.08000
N400        N  0.78386944  0.55597269  0.87031638    -0.35800
N401        N  0.77391633  0.54125393  0.84871366    -0.28000
C402        C  0.76631707  0.56003734  0.82854015    -0.03200
C403        C  0.77163157  0.58803174  0.83786296     0.05400
C404        C  0.78292622  0.58447111  0.86447143     0.03500
H405        H  0.75778291  0.55369368  0.80842012     0.08600
H406        H  0.79082113  0.60110691  0.87835085     0.07400
N407        N  0.73547649  0.95512915  0.34876041    -0.27000
N408        N  0.72796955  0.94073831  0.37149521    -0.34900
C409        C  0.72836112  0.91213607  0.36608514     0.01300
C410        C  0.73668282  0.90815644  0.33852888     0.07400
C411        C  0.74089860  0.93601883  0.32825158    -0.05700
H412        H  0.72198043  0.89572542  0.38094890     0.08000
H413        H  0.74719107  0.94205884  0.30727104     0.09200
Cu414      Cu  0.71689185  0.96068261  0.40861353     0.44200
Cu415      Cu  0.73667436  0.00015570  0.34640559     0.42000
Cu416      Cu  0.71376821  0.03915476  0.40843240     0.43900
N417        N  0.70849474  0.98531270  0.44372697    -0.34400
N418        N  0.70712138  0.01394118  0.44375155    -0.28600
C419        C  0.70319293  0.02317390  0.47012252    -0.04700
C420        C  0.70216829  0.99917105  0.48744397     0.07500
C421        C  0.70553062  0.97555732  0.47001391     0.01300
H422        H  0.70232183  0.04570896  0.47630540     0.08900
H423        H  0.70678123  0.95298782  0.47604305     0.08000
N424        N  0.72568567  0.05927777  0.37140211    -0.35800
N425        N  0.73449073  0.04512466  0.34898833    -0.28000
C426        C  0.74067655  0.06440906  0.32876819    -0.03200
C427        C  0.73560515  0.09216386  0.33884183     0.05400
C428        C  0.72596531  0.08790598  0.36600548     0.03500
H429        H  0.74816883  0.05854706  0.30813001     0.08600
H430        H  0.71875454  0.10412547  0.38062686     0.07400
N431        N  0.71907387  0.95241630  0.65927816    -0.27000
N432        N  0.71716841  0.93860236  0.63521895    -0.34900
C433        C  0.72081204  0.91010223  0.63970987     0.01300
C434        C  0.72529675  0.90560811  0.66801792     0.07400
C435        C  0.72386484  0.93306715  0.67976554    -0.05700
H436        H  0.72041604  0.89386466  0.62342021     0.08000
H437        H  0.72556925  0.93876665  0.70153608     0.09200
Cu438      Cu  0.70975717  0.95903267  0.59736595     0.44200
Cu439      Cu  0.71614639  0.99699181  0.66284457     0.42000
Cu440      Cu  0.70371952  0.03704059  0.59846695     0.43900
N441        N  0.70361819  0.98405622  0.56193756    -0.34400
N442        N  0.70127501  0.01261288  0.56228809    -0.28600
C443        C  0.69947989  0.02238042  0.53587467    -0.04700
C444        C  0.70078567  0.99879964  0.51810509     0.07500
C445        C  0.70331368  0.97486218  0.53532161     0.01300
H446        H  0.69840791  0.04502067  0.53006490     0.08900
H447        H  0.70585830  0.95250044  0.52899871     0.08000
N448        N  0.71202807  0.05629271  0.63668758    -0.35800
N449        N  0.71682897  0.04172747  0.65999751    -0.28000
C450        C  0.72310109  0.06053009  0.68055034    -0.03200
C451        C  0.72232787  0.08831748  0.66963786     0.05400
C452        C  0.71499094  0.08477026  0.64182942     0.03500
H453        H  0.72751997  0.05429522  0.70184391     0.08600
H454        H  0.71256656  0.10163956  0.62627984     0.07400
O455        O  0.72274476  0.23039974  0.78964219    -0.72600
O456        O  0.79856847  0.24003513  0.74990177    -0.73600
O457        O  0.76705474  0.27306525  0.78983820    -0.62200
O458        O  0.75368908  0.19799480  0.74938047    -0.70700
O459        O  0.73147076  0.22170626  0.71540189    -0.70200
O460        O  0.74452190  0.29663914  0.75593700    -0.61500
O461        O  0.77642682  0.26374162  0.71593650    -0.74000
O462        O  0.70054228  0.25392781  0.75558871    -0.72800
Cu463      Cu  0.76131082  0.23458153  0.77087145     1.04600
Cu464      Cu  0.73753283  0.25986271  0.73453133     1.04300
C465        C  0.69956704  0.24043740  0.77890672     0.93500
C466        C  0.79957599  0.25320073  0.72646159     0.92700
C467        C  0.75754871  0.29675385  0.77943325     0.84800
C468        C  0.74020989  0.19792227  0.72606999     0.91100
O469        O  0.74512667  0.70397817  0.24254226    -0.72600
O470        O  0.73444008  0.77865070  0.28394535    -0.73600
O471        O  0.70186844  0.74727581  0.24382705    -0.62200
O472        O  0.77750318  0.73575617  0.28246231    -0.70700
O473        O  0.80000643  0.76011036  0.24902860    -0.70200
O474        O  0.72414287  0.77036038  0.20933865    -0.61500
O475        O  0.75570880  0.80276959  0.24945464    -0.74000
O476        O  0.76856975  0.72703275  0.20876895    -0.72800
Cu477      Cu  0.73896795  0.74059276  0.26429403     1.04600
Cu478      Cu  0.76289667  0.76586974  0.22787581     1.04300
C479        C  0.75865756  0.70349012  0.21927682     0.93500
C480        C  0.74346369  0.80245439  0.27341391     0.92700
C481        C  0.70092356  0.76073101  0.22052135     0.84800
C482        C  0.80070123  0.74655790  0.27230084     0.91100
O483        O  0.75441321  0.79269210  0.74460728    -0.72600
O484        O  0.76678861  0.71770860  0.78465668    -0.73600
O485        O  0.79923433  0.75080910  0.74586697    -0.62200
O486        O  0.72238533  0.75955970  0.78332673    -0.70700
O487        O  0.70057958  0.73557688  0.74929553    -0.70200
O488        O  0.77750266  0.72797642  0.71108292    -0.61500
O489        O  0.74609527  0.69376041  0.74983727    -0.74000
O490        O  0.73220659  0.76973835  0.71019357    -0.72800
Cu491      Cu  0.76141759  0.75598677  0.76576841     1.04600
Cu492      Cu  0.73837369  0.73092695  0.72883346     1.04300
C493        C  0.74114228  0.79334545  0.72122825     0.93500
C494        C  0.75848840  0.69387766  0.77369291     0.92700
C495        C  0.80057099  0.73780678  0.72239178     0.84800
C496        C  0.69935692  0.74909881  0.77254438     0.91100
C497        C  0.71039381  0.14015660  0.67691469    -0.12000
C498        C  0.72721395  0.11608849  0.68434950     0.05000
C499        C  0.74818960  0.11915044  0.70552451    -0.07300
C500        C  0.75183454  0.14588642  0.71883792    -0.08000
C501        C  0.73506561  0.17005615  0.71142155    -0.02600
C502        C  0.71401243  0.16692049  0.69021074     0.04300
N503        N  0.69543800  0.19028781  0.68240404     0.66800
H504        H  0.69397115  0.13811478  0.66099497     0.15700
H505        H  0.76834251  0.14780083  0.73469388     0.15400
N506        N  0.76716231  0.09591970  0.71275426     0.74500
O507        O  0.70130379  0.20496516  0.66087910    -0.39000
O508        O  0.67034899  0.19163347  0.69271805    -0.38900
O509        O  0.79130649  0.09397248  0.70059668    -0.39600
O510        O  0.76319453  0.08243623  0.73537511    -0.39700
C511        C  0.71732423  0.85226974  0.66998112    -0.12000
C512        C  0.72940392  0.87720455  0.68216550     0.05000
C513        C  0.74503761  0.87423641  0.70732598    -0.07300
C514        C  0.74830062  0.84686048  0.71953076    -0.08000
C515        C  0.73641451  0.82182594  0.70726880    -0.02600
C516        C  0.72060561  0.82486304  0.68217587     0.04300
N517        N  0.70741402  0.80055816  0.66876720     0.66800
H518        H  0.70485274  0.85396405  0.65100336     0.15700
H519        H  0.76066110  0.84529851  0.73860600     0.15400
N520        N  0.75892787  0.89841448  0.72029443     0.74500
O521        O  0.68122535  0.79478661  0.67376285    -0.39000
O522        O  0.71943574  0.78956082  0.64762540    -0.38900
O523        O  0.74865284  0.90848624  0.74269356    -0.39600
O524        O  0.78454228  0.90472687  0.71345940    -0.39700
C525        C  0.73298537  0.88144556  0.29357767    -0.12000
C526        C  0.73831409  0.88062785  0.32244156     0.05000
C527        C  0.74458098  0.85359426  0.33503054    -0.07300
C528        C  0.74544232  0.82839617  0.31871529    -0.08000
C529        C  0.74073514  0.82947337  0.28980262    -0.02600
C530        C  0.73423439  0.85630775  0.27729157     0.04300
N531        N  0.72666817  0.85818441  0.24848619     0.66800
H532        H  0.72724559  0.90159778  0.28352417     0.15700
H533        H  0.75079625  0.80801221  0.32859772     0.15400
N534        N  0.75183272  0.85136918  0.36393637     0.74500
O535        O  0.70028420  0.85987266  0.24204819    -0.39000
O536        O  0.74555475  0.86602000  0.23099263    -0.38900
O537        O  0.73431548  0.83929675  0.38051607    -0.39600
O538        O  0.77781117  0.85477012  0.37130438    -0.39700
C539        C  0.78531796  0.32659403  0.81335766    -0.12000
C540        C  0.76205590  0.32440719  0.79466094     0.05000
C541        C  0.74389969  0.34871804  0.79087072    -0.07300
C542        C  0.74942554  0.37443469  0.80547749    -0.08000
C543        C  0.77283525  0.37669468  0.82402479    -0.02600
C544        C  0.79095078  0.35237293  0.82782678     0.04300
N545        N  0.81617187  0.35381490  0.84496360     0.66800
H546        H  0.79973939  0.30842440  0.81627726     0.15700
H547        H  0.73498142  0.39256942  0.80256424     0.15400
N548        N  0.71913773  0.34748926  0.77306879     0.74500
O549        O  0.81618044  0.34103299  0.86826774    -0.39000
O550        O  0.83997509  0.36097920  0.83401857    -0.38900
O551        O  0.69470954  0.34171867  0.78347920    -0.39600
O552        O  0.72051736  0.35850529  0.74897908    -0.39700
C553        C  0.77043525  0.61455931  0.79247259    -0.12000
C554        C  0.76803641  0.61538211  0.82175212     0.05000
C555        C  0.76278788  0.64234825  0.83482516    -0.07300
C556        C  0.76028954  0.66751907  0.81869366    -0.08000
C557        C  0.76245488  0.66660371  0.78950032    -0.02600
C558        C  0.76774787  0.63979283  0.77635081     0.04300
N559        N  0.77202083  0.63798072  0.74684997     0.66800
H560        H  0.77511608  0.59438128  0.78198000     0.15700
H561        H  0.75578577  0.68782256  0.82909236     0.15400
N562        N  0.75836454  0.64457485  0.86426900     0.74500
O563        O  0.79712779  0.64131253  0.73697825    -0.39000
O564        O  0.75254559  0.62695770  0.73176331    -0.38900
O565        O  0.77731219  0.65687992  0.87907610    -0.39600
O566        O  0.73321960  0.64112847  0.87400327    -0.39700
C567        C  0.74080915  0.65386653  0.20816338    -0.12000
C568        C  0.76207641  0.67536905  0.20448276     0.05000
C569        C  0.78585685  0.66938329  0.18689535    -0.07300
C570        C  0.78789717  0.64243036  0.17347936    -0.08000
C571        C  0.76662588  0.62095668  0.17718748    -0.02600
C572        C  0.74274685  0.62700542  0.19459695     0.04300
N573        N  0.71928844  0.60698505  0.19730741     0.66800
H574        H  0.72214453  0.65815578  0.22111618     0.15700
H575        H  0.80652294  0.63812268  0.16049510     0.15400
N576        N  0.80881219  0.68983819  0.18336013     0.74500
O577        O  0.71662876  0.59248654  0.21951560    -0.39000
O578        O  0.69801549  0.60904356  0.18094433    -0.38900
O579        O  0.83122965  0.68762847  0.19820997    -0.39600
O580        O  0.80945206  0.70550853  0.16176350    -0.39700
C581        C  0.76306281  0.32752231  0.18019718    -0.12000
C582        C  0.76211077  0.32793356  0.20945636     0.05000
C583        C  0.76413554  0.35484214  0.22334551    -0.07300
C584        C  0.76741777  0.38045916  0.20789231    -0.08000
C585        C  0.76842747  0.38012715  0.17852679    -0.02600
C586        C  0.76589946  0.35311194  0.16469740     0.04300
N587        N  0.76484736  0.35103881  0.13496622     0.66800
H588        H  0.76089793  0.30720911  0.16913196     0.15700
H589        H  0.76970347  0.40060921  0.21912271     0.15400
N590        N  0.76400728  0.35659708  0.25313305     0.74500
O591        O  0.78636271  0.34084553  0.12207031    -0.39000
O592        O  0.74057891  0.35161702  0.12295323    -0.38900
O593        O  0.78775585  0.35754090  0.26605975    -0.39600
O594        O  0.74111003  0.36398953  0.26557322    -0.39700
C595        C  0.73462422  0.11924525  0.29372206    -0.12000
C596        C  0.73792924  0.11984742  0.32292607     0.05000
C597        C  0.74304933  0.14685163  0.33603041    -0.07300
C598        C  0.74425297  0.17225260  0.32003293    -0.08000
C599        C  0.74117094  0.17153797  0.29090106    -0.02600
C600        C  0.73637360  0.14464709  0.27770945     0.04300
N601        N  0.73207366  0.14279104  0.24823153     0.66800
H602        H  0.73021277  0.09904388  0.28315531     0.15700
H603        H  0.74856882  0.19259877  0.33044939     0.15400
N604        N  0.74879588  0.14893178  0.36526367     0.74500
O605        O  0.75276660  0.13497473  0.23279649    -0.39000
O606        O  0.70664623  0.14235593  0.23869488    -0.38900
O607        O  0.77460242  0.14730728  0.37366274    -0.39600
O608        O  0.72987571  0.15972296  0.38115038    -0.39700
C609        C  0.28610203  0.14173084  0.67677429    -0.12000
C610        C  0.26683590  0.11927009  0.68365699     0.05000
C611        C  0.24526083  0.12430402  0.70389754    -0.07300
C612        C  0.24323763  0.15145558  0.71664443    -0.08000
C613        C  0.26239071  0.17405120  0.70972784    -0.02600
C614        C  0.28425107  0.16885951  0.68973831     0.04300
N615        N  0.30559998  0.19027774  0.68327493     0.66800
H616        H  0.30311083  0.13804636  0.66170341     0.15700
H617        H  0.22617395  0.15494592  0.73170761     0.15400
N618        N  0.22421944  0.10270404  0.71076513     0.74500
O619        O  0.32885832  0.19082602  0.69703155    -0.39000
O620        O  0.30413576  0.20382136  0.66042406    -0.38900
O621        O  0.22570461  0.08990868  0.73401789    -0.39600
O622        O  0.20100750  0.10150669  0.69698025    -0.39700
C623        C  0.25394544  0.12403496  0.29904895    -0.12000
C624        C  0.27390711  0.12356583  0.32113718     0.05000
C625        C  0.28874436  0.14934885  0.32798290    -0.07300
C626        C  0.28346217  0.17474002  0.31283031    -0.08000
C627        C  0.26359528  0.17527383  0.29062012    -0.02600
C628        C  0.24863923  0.14944560  0.28385952     0.04300
N629        N  0.22748092  0.14859118  0.26215126     0.66800
H630        H  0.24199844  0.10465902  0.29371687     0.15700
H631        H  0.29543903  0.19405873  0.31832180     0.15400
N632        N  0.31038635  0.14996358  0.34924045     0.74500
O633        O  0.23465379  0.13955854  0.23827110    -0.39000
O634        O  0.20101481  0.15010679  0.26844118    -0.38900
O635        O  0.33647501  0.14600013  0.34251537    -0.39600
O636        O  0.30464916  0.16165512  0.37240063    -0.39700
C637        C  0.15034541  0.24901065  0.71908134    -0.12000
C638        C  0.17426251  0.26577678  0.71059494     0.05000
C639        C  0.17041587  0.28601055  0.68871755    -0.07300
C640        C  0.14336425  0.28869087  0.67571180    -0.08000
C641        C  0.11959290  0.27179681  0.68417136    -0.02600
C642        C  0.12332978  0.25176052  0.70614264     0.04300
N643        N  0.10050625  0.23271587  0.71453801     0.66800
H644        H  0.15266911  0.23308606  0.73548469     0.15700
H645        H  0.14086564  0.30444509  0.65918408     0.15400
N646        N  0.19337120  0.30468217  0.67991698     0.74500
O647        O  0.09717014  0.20892602  0.70194403    -0.39000
O648        O  0.08829944  0.23652139  0.73782263    -0.38900
O649        O  0.20614674  0.29971906  0.65712889    -0.39600
O650        O  0.19646836  0.32903879  0.69152619    -0.39700
C651        C  0.87988169  0.25148322  0.70722524    -0.12000
C652        C  0.87966181  0.26384217  0.68040088     0.05000
C653        C  0.85274196  0.27196574  0.66876046    -0.07300
C654        C  0.82720957  0.26812596  0.68409702    -0.08000
C655        C  0.82748170  0.25621172  0.71110714    -0.02600
C656        C  0.85434352  0.24757355  0.72253276     0.04300
N657        N  0.85639784  0.23495805  0.74971517     0.66800
H658        H  0.89996516  0.24448666  0.71647859     0.15700
H659        H  0.80704900  0.27481956  0.67472155     0.15400
N660        N  0.85068932  0.28511727  0.64183301     0.74500
O661        O  0.85687269  0.20771372  0.75209594    -0.39000
O662        O  0.86468930  0.25043552  0.76990049    -0.38900
O663        O  0.84052789  0.27059882  0.62177269    -0.39600
O664        O  0.85196678  0.31236726  0.63983590    -0.39700
C665        C  0.12549916  0.28019986  0.29497615    -0.12000
C666        C  0.12083711  0.26352983  0.31915440     0.05000
C667        C  0.14326804  0.24561913  0.32926752    -0.07300
C668        C  0.16991191  0.24506239  0.31549721    -0.08000
C669        C  0.17443864  0.26179484  0.29156608    -0.02600
C670        C  0.15222705  0.27952330  0.28123357     0.04300
N671        N  0.15704360  0.29764552  0.25743016     0.66800
H672        H  0.10861153  0.29430218  0.28716801     0.15700
H673        H  0.18686541  0.23087414  0.32304627     0.15400
N674        N  0.13875508  0.22642608  0.35230175     0.74500
O675        O  0.15043464  0.28857474  0.23342372    -0.39000
O676        O  0.17237673  0.32017450  0.25982309    -0.38900
O677        O  0.13007781  0.20093097  0.34764083    -0.39600
O678        O  0.15000108  0.23230541  0.37561423    -0.39700
C679        C  0.88152993  0.25111772  0.29448820    -0.12000
C680        C  0.88177935  0.26578088  0.32017737     0.05000
C681        C  0.85548596  0.27689687  0.33069913    -0.07300
C682        C  0.82989606  0.27318304  0.31557974    -0.08000
C683        C  0.82958121  0.25852701  0.28985761    -0.02600
C684        C  0.85591137  0.24738508  0.27935109     0.04300
N685        N  0.85724173  0.23208224  0.25345795     0.66800
H686        H  0.90126245  0.24208034  0.28615305     0.15700
H687        H  0.81018724  0.28212659  0.32409917     0.15400
N688        N  0.85428835  0.29304819  0.35611376     0.74500
O689        O  0.86447655  0.24550193  0.23156176    -0.39000
O690        O  0.85756070  0.20472702  0.25359511    -0.38900
O691        O  0.85636976  0.32031031  0.35512714    -0.39600
O692        O  0.84364238  0.28130299  0.37761252    -0.39700
C693        C  0.25523391  0.37700047  0.80730334    -0.12000
C694        C  0.23072693  0.37943787  0.82450006     0.05000
C695        C  0.21186395  0.35550027  0.82707915    -0.07300
C696        C  0.21751569  0.33003780  0.81222723    -0.08000
C697        C  0.24172077  0.32778826  0.79461849    -0.02600
C698        C  0.26093967  0.35147147  0.79254154     0.04300
N699        N  0.28700680  0.34958251  0.77660416     0.66800
H700        H  0.27032999  0.39483441  0.80561084     0.12500
H701        H  0.20242143  0.31219595  0.81398209     0.15400
N702        N  0.18598746  0.35709739  0.84333692     0.74500
O703        O  0.28811211  0.36097028  0.75266654    -0.39000
O704        O  0.31017408  0.34230257  0.78859322    -0.38900
O705        O  0.16274702  0.36471636  0.83168137    -0.39600
O706        O  0.18488835  0.34427067  0.86659814    -0.39700
C707        C  0.24217908  0.38403635  0.20523464    -0.12000
C708        C  0.22251457  0.38407366  0.18287004     0.05000
C709        C  0.20975946  0.35753687  0.17473063    -0.07300
C710        C  0.21693659  0.33194445  0.18870815    -0.08000
C711        C  0.23650902  0.33186098  0.21112093    -0.02600
C712        C  0.24917863  0.35841816  0.21939397     0.04300
N713        N  0.26949192  0.35994192  0.24181123     0.66800
H714        H  0.25260934  0.40389922  0.21164695     0.15700
H715        H  0.20653675  0.31207144  0.18218460     0.15400
N716        N  0.18847244  0.35607617  0.15318153     0.74500
O717        O  0.26082273  0.36720216  0.26579451    -0.39000
O718        O  0.29618062  0.36094663  0.23634768    -0.38900
O719        O  0.19496503  0.34444035  0.13017631    -0.39600
O720        O  0.16216049  0.35913207  0.15952673    -0.39700
C721        C  0.32839211  0.21414767  0.81348379    -0.12000
C722        C  0.32884591  0.23521701  0.79220856     0.05000
C723        C  0.35539176  0.24885071  0.78561277    -0.07300
C724        C  0.38054687  0.24113955  0.80001770    -0.08000
C725        C  0.37999776  0.22007997  0.82119178    -0.02600
C726        C  0.35356056  0.20650886  0.82789978     0.04300
N727        N  0.35204947  0.18386498  0.84823594     0.66800
H728        H  0.30849636  0.20306431  0.81873282     0.15700
H729        H  0.40052077  0.25214372  0.79490680     0.15400
N730        N  0.35723838  0.27111419  0.76492781     0.74500
O731        O  0.34151527  0.18919392  0.87199499    -0.39000
O732        O  0.35440065  0.15786564  0.84038874    -0.38900
O733        O  0.35698713  0.29732234  0.77245005    -0.39600
O734        O  0.36558935  0.26476389  0.74060402    -0.39700
C735        C  0.64152670  0.22050282  0.83235616    -0.12000
C736        C  0.61654819  0.23154574  0.81958058     0.05000
C737        C  0.61906183  0.24478403  0.79309718    -0.07300
C738        C  0.64620164  0.24724549  0.78036204    -0.08000
C739        C  0.67131692  0.23660400  0.79330285    -0.02600
C740        C  0.66864485  0.22275025  0.81955656     0.04300
N741        N  0.69306760  0.21075090  0.83368228     0.66800
H742        H  0.64007565  0.20977063  0.85236705     0.15700
H743        H  0.64750308  0.25784971  0.76026919     0.15400
N744        N  0.59463513  0.25700146  0.77918852     0.74500
O745        O  0.70589055  0.22561401  0.85200406    -0.39000
O746        O  0.69749184  0.18378936  0.83251073    -0.38900
O747        O  0.58966775  0.28375687  0.78175288    -0.39600
O748        O  0.58334983  0.24335684  0.75912434    -0.39700
C749        C  0.35277532  0.23775653  0.22541904    -0.12000
C750        C  0.32824917  0.24361431  0.20923867     0.05000
C751        C  0.33078359  0.24477593  0.17995519    -0.07300
C752        C  0.35757908  0.23978827  0.16738948    -0.08000
C753        C  0.38213926  0.23340024  0.18348619    -0.02600
C754        C  0.37953284  0.23239262  0.21289220     0.04300
N755        N  0.40322639  0.22439969  0.23039351     0.66800
H756        H  0.35099535  0.23638901  0.24789669     0.15700
H757        H  0.35914772  0.24139427  0.14494108     0.15400
N758        N  0.30669752  0.25217476  0.16270669     0.74500
O759        O  0.41545286  0.24359977  0.24499255    -0.39000
O760        O  0.40662611  0.19805779  0.23669737    -0.38900
O761        O  0.30340944  0.27815081  0.15507152    -0.39600
O762        O  0.29304407  0.23234355  0.15022998    -0.39700
C763        C  0.64326898  0.23519681  0.16866995    -0.12000
C764        C  0.61838933  0.23043011  0.18490781     0.05000
C765        C  0.62087988  0.23099139  0.21436229    -0.07300
C766        C  0.64787887  0.23589870  0.22671049    -0.08000
C767        C  0.67272087  0.24004101  0.21035241    -0.02600
C768        C  0.67018213  0.23997140  0.18103424     0.04300
N769        N  0.69442341  0.24602845  0.16342591     0.66800
H770        H  0.64191172  0.23583922  0.14617847     0.15700
H771        H  0.64950996  0.23569496  0.24922697     0.15400
N772        N  0.59668829  0.22550594  0.23220360     0.74500
O773        O  0.70713445  0.22539282  0.15128095    -0.39000
O774        O  0.69863678  0.27165489  0.15509423    -0.38900
O775        O  0.59203645  0.19997719  0.24059058    -0.39600
O776        O  0.58516619  0.24640790  0.24503507    -0.39700
C777        C  0.27270539  0.85705790  0.67154268    -0.12000
C778        C  0.25635661  0.88021075  0.68207462     0.05000
C779        C  0.23981054  0.87596148  0.70649364    -0.07300
C780        C  0.24012789  0.84903801  0.71993349    -0.08000
C781        C  0.25650862  0.82577853  0.70946729    -0.02600
C782        C  0.27296129  0.83008037  0.68489168     0.04300
N783        N  0.29039106  0.80756912  0.67324853     0.66800
H784        H  0.28582183  0.85996371  0.65306509     0.15700
H785        H  0.22691120  0.84627452  0.73837293     0.15400
N786        N  0.22125548  0.89810296  0.71714074     0.74500
O787        O  0.31669039  0.80584036  0.68004904    -0.39000
O788        O  0.28154692  0.79412545  0.65196032    -0.38900
O789        O  0.19533050  0.89907123  0.70898961    -0.39600
O790        O  0.22832588  0.91135297  0.73914658    -0.39700
C791        C  0.24701859  0.67001346  0.82069179    -0.12000
C792        C  0.24298361  0.66943458  0.79169835     0.05000
C793        C  0.23782763  0.64266688  0.77841970    -0.07300
C794        C  0.23643574  0.61720344  0.79430477    -0.08000
C795        C  0.24057265  0.61768588  0.82339521    -0.02600
C796        C  0.24637047  0.64453402  0.83651119     0.04300
N797        N  0.25347085  0.64633016  0.86548578     0.66800
H798        H  0.25172944  0.69029172  0.83107416     0.15700
H799        H  0.23154880  0.59710479  0.78376035     0.15400
N800        N  0.23286990  0.64099008  0.74902235     0.74500
O801        O  0.27936433  0.64253155  0.87292100    -0.39000
O802        O  0.23617639  0.65870406  0.88201388    -0.38900
O803        O  0.25295489  0.63236911  0.73324453    -0.39600
O804        O  0.20725050  0.64125274  0.73998192    -0.39700
C805        C  0.12263284  0.71965964  0.70900388    -0.12000
C806        C  0.12025307  0.72947435  0.68124749     0.05000
C807        C  0.14460320  0.74256466  0.66844041    -0.07300
C808        C  0.17067492  0.74464810  0.68299562    -0.08000
C809        C  0.17292165  0.73473034  0.71047708    -0.02600
C810        C  0.14873975  0.72222774  0.72364438     0.04300
N811        N  0.15084026  0.71094362  0.75138653     0.66800
H812        H  0.10441247  0.70927774  0.71917725     0.15700
H813        H  0.18907723  0.75498804  0.67304206     0.15400
N814        N  0.14291238  0.75558997  0.64142207     0.74500
O815        O  0.14106067  0.72538983  0.77164929    -0.39000
O816        O  0.16560461  0.68846241  0.75599959    -0.38900
O817        O  0.13529807  0.78177228  0.63947784    -0.39600
O818        O  0.15598578  0.74391563  0.62121660    -0.39700
C819        C  0.88119644  0.73793485  0.70465351    -0.12000
C820        C  0.88124799  0.72367437  0.67871730     0.05000
C821        C  0.85452613  0.71438902  0.66747281    -0.07300
C822        C  0.82883866  0.71959773  0.68198655    -0.08000
C823        C  0.82874736  0.73368456  0.70796276    -0.02600
C824        C  0.85546315  0.74285788  0.71934605     0.04300
N825        N  0.85716188  0.75688495  0.74589258     0.66800
H826        H  0.90118065  0.74556878  0.71367655     0.15700
H827        H  0.80883590  0.71206384  0.67283923     0.15400
N828        N  0.85281141  0.69852062  0.64193669     0.74500
O829        O  0.86239056  0.74192779  0.76737006    -0.39000
O830        O  0.86037075  0.78403855  0.74688225    -0.38900
O831        O  0.85311777  0.67118074  0.64280000    -0.39600
O832        O  0.84309410  0.71098434  0.62044275    -0.39700
C833        C  0.82787977  0.72787964  0.31335147    -0.12000
C834        C  0.82817493  0.74348172  0.28810521     0.05000
C835        C  0.85446349  0.75614117  0.27916577    -0.07300
C836        C  0.87949350  0.75272620  0.29517551    -0.08000
C837        C  0.87928185  0.73676131  0.32017792    -0.02600
C838        C  0.85293281  0.72445296  0.32935489     0.04300
N839        N  0.85113464  0.70755953  0.35430946     0.66800
H840        H  0.80811643  0.71799351  0.32079994     0.15700
H841        H  0.89916235  0.76290044  0.28792734     0.15400
N842        N  0.85636519  0.77264717  0.25397197     0.74500
O843        O  0.83995543  0.71860660  0.37586282    -0.39000
O844        O  0.85363494  0.68037123  0.35277965    -0.38900
O845        O  0.85562761  0.79996322  0.25519952    -0.39600
O846        O  0.86523836  0.76055748  0.23195356    -0.39700
C847        C  0.35083481  0.73961453  0.78223472    -0.12000
C848        C  0.32843167  0.75857485  0.78983191     0.05000
C849        C  0.33324893  0.77853629  0.81171454    -0.07300
C850        C  0.35973746  0.77857299  0.82586594    -0.08000
C851        C  0.38190743  0.75925114  0.81850982    -0.02600
C852        C  0.37728607  0.73970556  0.79631226     0.04300
N853        N  0.39839919  0.71849967  0.78883523     0.66800
H854        H  0.34757997  0.72385715  0.76583295     0.15700
H855        H  0.36311061  0.79417283  0.84237436     0.15400
N856        N  0.31196851  0.79953242  0.81933699     0.74500
O857        O  0.39821778  0.69429002  0.80112357    -0.39000
O858        O  0.41168990  0.72099242  0.76592886    -0.38900
O859        O  0.29780003  0.79620088  0.84164523    -0.39600
O860        O  0.31214155  0.82400494  0.80753609    -0.39700
C861        C  0.62008159  0.74382081  0.79462254    -0.12000
C862        C  0.61948506  0.76277377  0.81758929     0.05000
C863        C  0.64518079  0.77734607  0.82514507    -0.07300
C864        C  0.67068674  0.77229564  0.81025694    -0.08000
C865        C  0.67141213  0.75322496  0.78738229    -0.02600
C866        C  0.64555521  0.73905810  0.77946113     0.04300
N867        N  0.64462320  0.71951858  0.75634312     0.66800
H868        H  0.60080037  0.73221033  0.78852386     0.15700
H869        H  0.68993696  0.78394327  0.81645722     0.15400
N870        N  0.64566917  0.79850945  0.84690614     0.74500
O871        O  0.64770898  0.69270155  0.76059767    -0.39000
O872        O  0.63429112  0.72806448  0.73339756    -0.38900
O873        O  0.65890910  0.79297047  0.86930748    -0.39600
O874        O  0.63937172  0.82445475  0.84120743    -0.39700
C875        C  0.64031913  0.79013021  0.17485304    -0.12000
C876        C  0.61829122  0.76991124  0.18002341     0.05000
C877        C  0.62341959  0.74702165  0.19888129    -0.07300
C878        C  0.65040925  0.74459710  0.21190375    -0.08000
C879        C  0.67268479  0.76460844  0.20643852    -0.02600
C880        C  0.66728076  0.78779094  0.18786671     0.04300
N881        N  0.68830228  0.80993514  0.18284303     0.66800
H882        H  0.63650312  0.80809183  0.16080819     0.15700
H883        H  0.65411160  0.72656557  0.22589071     0.15400
N884        N  0.60218967  0.72504154  0.20375124     0.74500
O885        O  0.70610556  0.80684542  0.16309430    -0.39000
O886        O  0.68392517  0.83496940  0.19251149    -0.38900
O887        O  0.60351423  0.70169560  0.19009667    -0.39600
O888        O  0.58708182  0.72597616  0.22568537    -0.39700
C889        C  0.27888878  0.83414758  0.31040132    -0.12000
C890        C  0.25857541  0.83365211  0.28858959     0.05000
C891        C  0.24335228  0.85943196  0.28228829    -0.07300
C892        C  0.24897723  0.88481293  0.29744667    -0.08000
C893        C  0.26940522  0.88519648  0.31911353    -0.02600
C894        C  0.28442927  0.85946073  0.32554228     0.04300
N895        N  0.30660961  0.85888556  0.34627682     0.66800
H896        H  0.29112222  0.81490837  0.31548055     0.15700
H897        H  0.23692507  0.90419703  0.29249327     0.15400
N898        N  0.22158588  0.86023728  0.26114554     0.74500
O899        O  0.30162995  0.84673645  0.36940837    -0.39000
O900        O  0.33245287  0.86353436  0.33902948    -0.38900
O901        O  0.19536426  0.85768237  0.26808233    -0.39600
O902        O  0.22779598  0.87037130  0.23740100    -0.39700
C903        C  0.25389189  0.65470132  0.21434883    -0.12000
C904        C  0.23859979  0.67878697  0.20412132     0.05000
C905        C  0.22074478  0.67510106  0.18042624    -0.07300
C906        C  0.21842959  0.64780633  0.16783259    -0.08000
C907        C  0.23357297  0.62374065  0.17826239    -0.02600
C908        C  0.25166675  0.62749606  0.20167804     0.04300
N909        N  0.26914701  0.60441168  0.21212740     0.66800
H910        H  0.26812862  0.65695246  0.23210094     0.15700
H911        H  0.20419982  0.64540269  0.15010927     0.15400
N912        N  0.20426319  0.69850935  0.16912010     0.74500
O913        O  0.29394496  0.60045896  0.20179727    -0.39000
O914        O  0.26312637  0.59329476  0.23551043    -0.38900
O915        O  0.21288831  0.71093554  0.14714603    -0.39600
O916        O  0.17852449  0.70216477  0.17715040    -0.39700
C917        C  0.32902277  0.79297364  0.18703945    -0.12000
C918        C  0.32662437  0.77000995  0.20620478     0.05000
C919        C  0.35128367  0.75279740  0.21163715    -0.07300
C920        C  0.37751438  0.75900295  0.19826789    -0.08000
C921        C  0.37986354  0.78199118  0.17919847    -0.02600
C922        C  0.35527693  0.79911515  0.17364560     0.04300
N923        N  0.35688557  0.82380765  0.15567826     0.66800
H924        H  0.31060944  0.80670118  0.18283329     0.15700
H925        H  0.39596212  0.74530225  0.20239360     0.15400
N926        N  0.34994509  0.72821774  0.22978384     0.74500
O927        O  0.34586515  0.82247862  0.13162306    -0.39000
O928        O  0.36277863  0.84827230  0.16600364    -0.38900
O929        O  0.34567091  0.70339225  0.21951263    -0.39600
O930        O  0.35953919  0.73034386  0.25435120    -0.39700
C931        C  0.14036649  0.72120474  0.32204161    -0.12000
C932        C  0.11667133  0.73823836  0.31401310     0.05000
C933        C  0.11982805  0.75748029  0.29127241    -0.07300
C934        C  0.14642169  0.75965324  0.27744944    -0.08000
C935        C  0.17034255  0.74303249  0.28579025    -0.02600
C936        C  0.16694634  0.72329485  0.30818827     0.04300
N937        N  0.18994613  0.70472104  0.31690178     0.66800
H938        H  0.13823610  0.70590532  0.33901823     0.15700
H939        H  0.14846245  0.77506368  0.26054885     0.15400
N940        N  0.09690725  0.77627229  0.28285877     0.74500
O941        O  0.20473090  0.71147294  0.33805745    -0.39000
O942        O  0.19097818  0.67909589  0.30774948    -0.38900
O943        O  0.09564920  0.80149224  0.29296919    -0.39600
O944        O  0.08307024  0.77063344  0.26082064    -0.39700
loop_ 
_geom_bond_atom_site_label_1 
_geom_bond_atom_site_label_2 
_geom_bond_distance 
_geom_bond_site_symmetry_2 
_ccdc_geom_bond_type 
O1           Cu9   2.014       .  S
O1           C11   1.278       .  A
O2           Cu9   2.017       .  S
O2           C12   1.278       .  A
O3           Cu9   2.014       .  S
O3           C13   1.280       .  A
O4           Cu9   2.008       .  S
O4           C14   1.279       .  A
O5          Cu10   2.003       .  S
O5           C14   1.276       .  A
O6          Cu10   2.006       .  S
O6           C13   1.277       .  A
O7          Cu10   2.004       .  S
O7           C12   1.279       .  A
O8          Cu10   1.996       .  S
O8           C11   1.278       .  A
Cu9         Cu10   2.367       .  S
C11         C904   1.486       .  S
C12         C890   1.488       .  S
C13         C918   1.485       .  S
C14         C935   1.485       .  S
N15          N16   1.321       .  A
N15          C19   1.344       .  A
N15         Cu23   2.075       .  S
N16          C17   1.345       .  A
N16         Cu22   2.069       .  S
C17          C18   1.385       .  A
C17          H20   1.080       .  S
C18         C921   1.481       .  S
C18          C19   1.386       .  A
C19          H21   1.083       .  S
Cu22         N25   2.069       .  S
Cu23         N33   2.074       .  S
Cu24         N26   2.073       .  S
Cu24         N32   2.073       .  S
N25          N26   1.322       .  A
N25          C29   1.344       .  A
N26          C27   1.345       .  A
C27          C28   1.384       .  A
C27          H30   1.082       .  S
C28          C52   1.471   1_554  S
C28          C29   1.382       .  A
C29          H31   1.082       .  S
N32          N33   1.322       .  A
N32          C36   1.343       .  A
N33          C34   1.346       .  A
C34          C35   1.384       .  A
C34          H37   1.081       .  S
C35         C876   1.477       .  S
C35          C36   1.383       .  A
C36          H38   1.083       .  S
N39          N40   1.320       .  A
N39          C43   1.342       .  A
N39         Cu47   2.067       .  S
N40          C41   1.344       .  A
N40         Cu46   2.070       .  S
C41          C42   1.388       .  A
C41          H44   1.079       .  S
C42         C862   1.485       .  S
C42          C43   1.386       .  A
C43          H45   1.082       .  S
Cu46         N49   2.070       .  S
Cu47         N57   2.067       .  S
Cu48         N50   2.076       .  S
Cu48         N56   2.076       .  S
N49          N50   1.322       .  A
N49          C53   1.344       .  A
N50          C51   1.345       .  A
C51          C52   1.384       .  A
C51          H54   1.082       .  S
C52          C53   1.382       .  A
C53          H55   1.082       .  S
N56          N57   1.321       .  A
N56          C60   1.344       .  A
N57          C58   1.344       .  A
C58          C59   1.385       .  A
C58          H61   1.080       .  S
C59         C851   1.481       .  S
C59          C60   1.385       .  A
C60          H62   1.082       .  S
N63          N64   1.319       .  A
N63          C67   1.341       .  A
N63         Cu71   2.065       .  S
N64          C65   1.345       .  A
N64         Cu70   2.063       .  S
C65          C66   1.388       .  A
C65          H68   1.078       .  S
C66         C837   1.485       .  S
C66          C67   1.386       .  A
C67          H69   1.082       .  S
Cu70         N73   2.064       .  S
Cu71         N81   2.065   1_655  S
Cu72         N74   2.073       .  S
Cu72         N80   2.073       .  S
N73          N74   1.322   1_655  A
N73          C77   1.342       .  A
N74          C75   1.345       .  A
C75          C76   1.383       .  A
C75          H78   1.082       .  S
C76         C100   1.467       .  S
C76          C77   1.380   1_455  A
C77          H79   1.082       .  S
N80          N81   1.321       .  A
N80          C84   1.343       .  A
N81          C82   1.344       .  A
C82          C83   1.385       .  A
C82          H85   1.079       .  S
C83         C932   1.482       .  S
C83          C84   1.386       .  A
C84          H86   1.082       .  S
N87          N88   1.322       .  A
N87          C91   1.346       .  A
N87         Cu95   2.077       .  S
N88          C89   1.342       .  A
N88         Cu94   2.069       .  S
C89          C90   1.385       .  A
C89          H92   1.080       .  S
C90         C806   1.485       .  S
C90          C91   1.387       .  A
C91          H93   1.082       .  S
Cu94         N97   2.069       .  S
Cu95        N105   2.077   1_455  S
Cu96         N98   2.061       .  S
Cu96        N104   2.061       .  S
N97          N98   1.321   1_455  A
N97         C101   1.345       .  A
N98          C99   1.342       .  A
C99         C100   1.381   1_655  A
C99         H102   1.082       .  S
C100        C101   1.383       .  A
C101        H103   1.082       .  S
N104        N105   1.320       .  A
N104        C108   1.342       .  A
N105        C106   1.344       .  A
C106        C107   1.390       .  A
C106        H109   1.081       .  S
C107        C820   1.488       .  S
C107        C108   1.387       .  A
C108        H110   1.077       .  S
O111       Cu119   2.009       .  S
O111        C121   1.277       .  A
O112       Cu119   2.007       .  S
O112        C122   1.277       .  A
O113       Cu119   1.996       .  S
O113        C123   1.277       .  A
O114       Cu119   1.999       .  S
O114        C124   1.278       .  A
O115       Cu120   2.009       .  S
O115        C124   1.278       .  A
O116       Cu120   2.015       .  S
O116        C123   1.278       .  A
O117       Cu120   1.992       .  S
O117        C122   1.275       .  A
O118       Cu120   1.999       .  S
O118        C121   1.278       .  A
Cu119      Cu120   2.371       .  S
C121        C848   1.482       .  S
C122        C809   1.466       .  S
C123        C792   1.476       .  S
C124        C781   1.485       .  S
N125        N126   1.320       .  A
N125        C129   1.342       .  A
N125       Cu133   2.051       .  S
N126        C127   1.342       .  A
N126       Cu132   2.075       .  S
C127        C128   1.389       .  A
C127        H130   1.082       .  S
C128        C764   1.484       .  S
C128        C129   1.384       .  A
C129        H131   1.078       .  S
Cu132       N135   2.075       .  S
Cu133       N143   2.050       .  S
Cu134       N136   2.069       .  S
Cu134       N142   2.069       .  S
N135        N136   1.322       .  A
N135        C139   1.346       .  A
N136        C137   1.344       .  A
C137        C138   1.382       .  A
C137        H140   1.082       .  S
C138        C162   1.471   1_554  S
C138        C139   1.384       .  A
C139        H141   1.082       .  S
N142        N143   1.320       .  A
N142        C146   1.342       .  A
N143        C144   1.341       .  A
C144        C145   1.383       .  A
C144        H147   1.078       .  S
C145        C753   1.479       .  S
C145        C146   1.387       .  A
C146        H148   1.082       .  S
N149        N150   1.321       .  A
N149        C153   1.342       .  A
N149       Cu157   2.067       .  S
N150        C151   1.346       .  A
N150       Cu156   2.073       .  S
C151        C152   1.386       .  A
C151        H154   1.080       .  S
C152        C725   1.480       .  S
C152        C153   1.384       .  A
C153        H155   1.083       .  S
Cu156       N159   2.073       .  S
Cu157       N167   2.067       .  S
Cu158       N160   2.073       .  S
Cu158       N166   2.072       .  S
N159        N160   1.322       .  A
N159        C163   1.344       .  A
N160        C161   1.346       .  A
C161        C162   1.383       .  A
C161        H164   1.082       .  S
C162        C163   1.383       .  A
C163        H165   1.082       .  S
N166        N167   1.321       .  A
N166        C170   1.342       .  A
N167        C168   1.345       .  A
C168        C169   1.386       .  A
C168        H171   1.079       .  S
C169        C736   1.483       .  S
C169        C170   1.386       .  A
C170        H172   1.082       .  S
N173        N174   1.321       .  A
N173        C177   1.346       .  A
N173       Cu181   2.077       .  S
N174        C175   1.342       .  A
N174       Cu180   2.066       .  S
C175        C176   1.384       .  A
C175        H178   1.082       .  S
C176        C907   1.483       .  S
C176        C177   1.388       .  A
C177        H179   1.080       .  S
Cu180       N183   2.066       .  S
Cu181       N191   2.077       .  S
Cu182       N184   2.063       .  S
Cu182       N190   2.064       .  S
N183        N184   1.321       .  A
N183        C187   1.343       .  A
N184        C185   1.344       .  A
C185        C186   1.382       .  A
C185        H188   1.082       .  S
C186        C210   1.466   1_554  S
C186        C187   1.382       .  A
C187        H189   1.082       .  S
N190        N191   1.321       .  A
N190        C194   1.343       .  A
N191        C192   1.344       .  A
C192        C193   1.388       .  A
C192        H195   1.082       .  S
C193        C708   1.486       .  S
C193        C194   1.386       .  A
C194        H196   1.078       .  S
N197        N198   1.322       .  A
N197        C201   1.343       .  A
N197       Cu205   2.073       .  S
N198        C199   1.345       .  A
N198       Cu204   2.071       .  S
C199        C200   1.385       .  A
C199        H202   1.080       .  S
C200        C694   1.480       .  S
C200        C201   1.384       .  A
C201        H203   1.083       .  S
Cu204       N207   2.071       .  S
Cu205       N215   2.073       .  S
Cu206       N208   2.061       .  S
Cu206       N214   2.061       .  S
N207        N208   1.322       .  A
N207        C211   1.345       .  A
N208        C209   1.342       .  A
C209        C210   1.380       .  A
C209        H212   1.082       .  S
C210        C211   1.383       .  A
C211        H213   1.082       .  S
N214        N215   1.319       .  A
N214        C218   1.343       .  A
N215        C216   1.344       .  A
C216        C217   1.389       .  A
C216        H219   1.082       .  S
C217        C795   1.486       .  S
C217        C218   1.387       .  A
C218        H220   1.079       .  S
N221        N222   1.322       .  A
N221        C225   1.346       .  A
N221       Cu229   2.078       .  S
N222        C223   1.342       .  A
N222       Cu228   2.065       .  S
C223        C224   1.382       .  A
C223        H226   1.081       .  S
C224        C666   1.476       .  S
C224        C225   1.385       .  A
C225        H227   1.082       .  S
Cu228       N231   2.065       .  S
Cu229       N239   2.078   1_455  S
Cu230       N232   2.064       .  S
Cu230       N238   2.064       .  S
N231        N232   1.321   1_455  A
N231        C235   1.345       .  A
N232        C233   1.342       .  A
C233        C234   1.382   1_655  A
C233        H236   1.082       .  S
C234        C258   1.467       .  S
C234        C235   1.382       .  A
C235        H237   1.082       .  S
N238        N239   1.321       .  A
N238        C242   1.344       .  A
N239        C240   1.344       .  A
C240        C241   1.388       .  A
C240        H243   1.082       .  S
C241        C680   1.485       .  S
C241        C242   1.386       .  A
C242        H244   1.078       .  S
N245        N246   1.322       .  A
N245        C249   1.347       .  A
N245       Cu253   2.085   1_455  S
N246        C247   1.344       .  A
N246       Cu252   2.074       .  S
C247        C248   1.384       .  A
C247        H250   1.082       .  S
C248        C641   1.487       .  S
C248        C249   1.389       .  A
C249        H251   1.080       .  S
Cu252       N255   2.073       .  S
Cu253       N263   2.085       .  S
Cu254       N256   2.060       .  S
Cu254       N262   2.061       .  S
N255        N256   1.322   1_455  A
N255        C259   1.346       .  A
N256        C257   1.342       .  A
C257        C258   1.380   1_655  A
C257        H260   1.082       .  S
C258        C259   1.384       .  A
C259        H261   1.082       .  S
N262        N263   1.320       .  A
N262        C266   1.344       .  A
N263        C264   1.344       .  A
C264        C265   1.391       .  A
C264        H267   1.082       .  S
C265        C652   1.491       .  S
C265        C266   1.387       .  A
C266        H268   1.078       .  S
N269        N270   1.322       .  A
N269        C273   1.343       .  A
N269       Cu277   2.074       .  S
N270        C271   1.346       .  A
N270       Cu276   2.075       .  S
C271        C272   1.387       .  A
C271        H274   1.079       .  S
C272        C624   1.484       .  S
C272        C273   1.385       .  A
C273        H275   1.082       .  S
Cu276       N279   2.075       .  S
Cu277       N287   2.074   1_545  S
Cu278       N280   2.068       .  S
Cu278       N286   2.068       .  S
N279        N280   1.323   1_545  A
N279        C283   1.345       .  A
N280        C281   1.344       .  A
C281        C282   1.381   1_565  A
C281        H284   1.082       .  S
C282        C306   1.469       .  S
C282        C283   1.383       .  A
C283        H285   1.082       .  S
N286        N287   1.321       .  A
N286        C290   1.344       .  A
N287        C288   1.344       .  A
C288        C289   1.386       .  A
C288        H291   1.082       .  S
C289        C893   1.483       .  S
C289        C290   1.386       .  A
C290        H292   1.079       .  S
N293        N294   1.321       .  A
N293        C297   1.344       .  A
N293       Cu301   2.066       .  S
N294        C295   1.342       .  A
N294       Cu300   2.070       .  S
C295        C296   1.385       .  A
C295        H298   1.082       .  S
C296        C778   1.480       .  S
C296        C297   1.385       .  A
C297        H299   1.079       .  S
Cu300       N303   2.070       .  S
Cu301       N311   2.066   1_565  S
Cu302       N304   2.065       .  S
Cu302       N310   2.065       .  S
N303        N304   1.321   1_565  A
N303        C307   1.344       .  A
N304        C305   1.344       .  A
C305        C306   1.382       .  A
C305        H308   1.082       .  S
C306        C307   1.383   1_545  A
C307        H309   1.082       .  S
N310        N311   1.321       .  A
N310        C314   1.342       .  A
N311        C312   1.344       .  A
C312        C313   1.385       .  A
C312        H315   1.079       .  S
C313        C610   1.478       .  S
C313        C314   1.383       .  A
C314        H316   1.082       .  S
O317       Cu325   2.030       .  S
O317        C327   1.280       .  A
O318       Cu325   2.016       .  S
O318        C328   1.279       .  A
O319       Cu325   2.020       .  S
O319        C329   1.279       .  A
O320       Cu325   2.015       .  S
O320        C330   1.279       .  A
O321       Cu326   1.991       .  S
O321        C330   1.276       .  A
O322       Cu326   1.990       .  S
O322        C329   1.276       .  A
O323       Cu326   1.997       .  S
O323        C328   1.277       .  A
O324       Cu326   2.001       .  S
O324        C327   1.278       .  A
Cu325      Cu326   2.368       .  S
C327        C638   1.491       .  S
C328        C722   1.486       .  S
C329        C613   1.481       .  S
C330        C697   1.479       .  S
O331       Cu339   1.999       .  S
O331        C341   1.276       .  A
O332       Cu339   1.994       .  S
O332        C342   1.275       .  A
O333       Cu339   1.999       .  S
O333        C343   1.279       .  A
O334       Cu339   2.017       .  S
O334        C344   1.279       .  A
O335       Cu340   2.001       .  S
O335        C344   1.278       .  A
O336       Cu340   2.011       .  S
O336        C343   1.277       .  A
O337       Cu340   1.997       .  S
O337        C342   1.275       .  A
O338       Cu340   1.996       .  S
O338        C341   1.277       .  A
Cu339      Cu340   2.373       .  S
C341        C750   1.470       .  S
C342        C669   1.459       .  S
C343        C711   1.486       .  S
C344        C627   1.488       .  S
O345       Cu353   1.998       .  S
O345        C355   1.278       .  A
O346       Cu353   2.005       .  S
O346        C356   1.278       .  A
O347       Cu353   2.005       .  S
O347        C357   1.278       .  A
O348       Cu353   2.011       .  S
O348        C358   1.277       .  A
O349       Cu354   2.010       .  S
O349        C358   1.279       .  A
O350       Cu354   2.019       .  S
O350        C357   1.279       .  A
O351       Cu354   2.001       .  S
O351        C356   1.277       .  A
O352       Cu354   2.010       .  S
O352        C355   1.278       .  A
Cu353      Cu354   2.370       .  S
C355        C683   1.487       .  S
C356        C767   1.476       .  S
C357        C599   1.481       .  S
C358        C582   1.483       .  S
N359        N360   1.322       .  A
N359        C363   1.348       .  A
N359       Cu367   2.088       .  S
N360        C361   1.344       .  A
N360       Cu366   2.077       .  S
C361        C362   1.385       .  A
C361        H364   1.082       .  S
C362        C571   1.487       .  S
C362        C363   1.389       .  A
C363        H365   1.080       .  S
Cu366       N369   2.076       .  S
Cu367       N377   2.087       .  S
Cu368       N370   2.067       .  S
Cu368       N376   2.068       .  S
N369        N370   1.322       .  A
N369        C373   1.346       .  A
N370        C371   1.344       .  A
C371        C372   1.382       .  A
C371        H374   1.082       .  S
C372        C396   1.471   1_554  S
C372        C373   1.384       .  A
C373        H375   1.082       .  S
N376        N377   1.321       .  A
N376        C380   1.344       .  A
N377        C378   1.345       .  A
C378        C379   1.391       .  A
C378        H381   1.081       .  S
C379        C585   1.492       .  S
C379        C380   1.388       .  A
C380        H382   1.077       .  S
N383        N384   1.322       .  A
N383        C387   1.344       .  A
N383       Cu391   2.078       .  S
N384        C385   1.346       .  A
N384       Cu390   2.076       .  S
C385        C386   1.387       .  A
C385        H388   1.079       .  S
C386        C543   1.486       .  S
C386        C387   1.387       .  A
C387        H389   1.082       .  S
Cu390       N393   2.076       .  S
Cu391       N401   2.078       .  S
Cu392       N394   2.070       .  S
Cu392       N400   2.071       .  S
N393        N394   1.322       .  A
N393        C397   1.345       .  A
N394        C395   1.345       .  A
C395        C396   1.382       .  A
C395        H398   1.082       .  S
C396        C397   1.384       .  A
C397        H399   1.082       .  S
N400        N401   1.321       .  A
N400        C404   1.344       .  A
N401        C402   1.345       .  A
C402        C403   1.388       .  A
C402        H405   1.082       .  S
C403        C554   1.488       .  S
C403        C404   1.388       .  A
C404        H406   1.079       .  S
N407        N408   1.321       .  A
N407        C411   1.344       .  A
N407       Cu415   2.080   1_565  S
N408        C409   1.345       .  A
N408       Cu414   2.067       .  S
C409        C410   1.387       .  A
C409        H412   1.079       .  S
C410        C526   1.488       .  S
C410        C411   1.389       .  A
C411        H413   1.082       .  S
Cu414       N417   2.067       .  S
Cu415       N425   2.081       .  S
Cu416       N418   2.074       .  S
Cu416       N424   2.075       .  S
N417        N418   1.322   1_565  A
N417        C421   1.343       .  A
N418        C419   1.345       .  A
C419        C420   1.384   1_545  A
C419        H422   1.082       .  S
C420        C444   1.470       .  S
C420        C421   1.382       .  A
C421        H423   1.082       .  S
N424        N425   1.321       .  A
N424        C428   1.345       .  A
N425        C426   1.345       .  A
C426        C427   1.389       .  A
C426        H429   1.082       .  S
C427        C596   1.490       .  S
C427        C428   1.388       .  A
C428        H430   1.078       .  S
N431        N432   1.320       .  A
N431        C435   1.345       .  A
N431       Cu439   2.068       .  S
N432        C433   1.343       .  A
N432       Cu438   2.072       .  S
C433        C434   1.387       .  A
C433        H436   1.082       .  S
C434        C512   1.487       .  S
C434        C435   1.388       .  A
C435        H437   1.078       .  S
Cu438       N441   2.071       .  S
Cu439       N449   2.068   1_565  S
Cu440       N442   2.071       .  S
Cu440       N448   2.071       .  S
N441        N442   1.322   1_565  A
N441        C445   1.344       .  A
N442        C443   1.345       .  A
C443        C444   1.383   1_545  A
C443        H446   1.082       .  S
C444        C445   1.383       .  A
C445        H447   1.082       .  S
N448        N449   1.322       .  A
N448        C452   1.343       .  A
N449        C450   1.344       .  A
C450        C451   1.384       .  A
C450        H453   1.079       .  S
C451        C498   1.480       .  S
C451        C452   1.385       .  A
C452        H454   1.083       .  S
O455       Cu463   2.005       .  S
O455        C465   1.277       .  A
O456       Cu463   2.008       .  S
O456        C466   1.277       .  A
O457       Cu463   2.012       .  S
O457        C467   1.279       .  A
O458       Cu463   2.008       .  S
O458        C468   1.279       .  A
O459       Cu464   2.004       .  S
O459        C468   1.276       .  A
O460       Cu464   2.009       .  S
O460        C467   1.277       .  A
O461       Cu464   2.013       .  S
O461        C466   1.280       .  A
O462       Cu464   2.003       .  S
O462        C465   1.279       .  A
Cu463      Cu464   2.367       .  S
C465        C739   1.486       .  S
C466        C655   1.491       .  S
C467        C540   1.484       .  S
C468        C501   1.484       .  S
O469       Cu477   2.006       .  S
O469        C479   1.278       .  A
O470       Cu477   2.004       .  S
O470        C480   1.277       .  A
O471       Cu477   2.001       .  S
O471        C481   1.278       .  A
O472       Cu477   1.996       .  S
O472        C482   1.277       .  A
O473       Cu478   2.011       .  S
O473        C482   1.278       .  A
O474       Cu478   2.012       .  S
O474        C481   1.278       .  A
O475       Cu478   2.020       .  S
O475        C480   1.279       .  A
O476       Cu478   2.030       .  S
O476        C479   1.280       .  A
Cu477      Cu478   2.369       .  S
C479        C568   1.487       .  S
C480        C529   1.479       .  S
C481        C879   1.481       .  S
C482        C834   1.486       .  S
O483       Cu491   2.000       .  S
O483        C493   1.278       .  A
O484       Cu491   1.999       .  S
O484        C494   1.277       .  A
O485       Cu491   2.005       .  S
O485        C495   1.276       .  A
O486       Cu491   1.997       .  S
O486        C496   1.278       .  A
O487       Cu492   2.014       .  S
O487        C496   1.278       .  A
O488       Cu492   2.003       .  S
O488        C495   1.279       .  A
O489       Cu492   2.019       .  S
O489        C494   1.279       .  A
O490       Cu492   2.021       .  S
O490        C493   1.279       .  A
Cu491      Cu492   2.367       .  S
C493        C515   1.490       .  S
C494        C557   1.479       .  S
C495        C823   1.487       .  S
C496        C865   1.486       .  S
C497        C498   1.403       .  A
C497        C502   1.399       .  A
C497        H504   1.081       .  S
C498        C499   1.411       .  A
C499        C500   1.399       .  A
C499        N506   1.429       .  S
C500        C501   1.405       .  A
C500        H505   1.081       .  S
C501        C502   1.415       .  A
C502        N503   1.429       .  S
N503        O507   1.262       .  A
N503        O508   1.262       .  A
N506        O510   1.262       .  A
N506        O509   1.262       .  A
C511        C512   1.405       .  A
C511        C516   1.401       .  A
C511        H518   1.080       .  S
C512        C513   1.413       .  A
C513        C514   1.399       .  A
C513        N520   1.429       .  S
C514        C515   1.407       .  A
C514        H519   1.081       .  S
C515        C516   1.414       .  A
C516        N517   1.429       .  S
N517        O521   1.262       .  A
N517        O522   1.262       .  A
N520        O524   1.262       .  A
N520        O523   1.262       .  A
C525        C526   1.405       .  A
C525        C530   1.399       .  A
C525        H532   1.080       .  S
C526        C527   1.415       .  A
C527        C528   1.402       .  A
C527        N534   1.428       .  S
C528        C529   1.403       .  A
C528        H533   1.081       .  S
C529        C530   1.408       .  A
C530        N531   1.426       .  S
N531        O535   1.261       .  A
N531        O536   1.262       .  A
N534        O538   1.262       .  A
N534        O537   1.262       .  A
C539        C540   1.404       .  A
C539        C544   1.401       .  A
C539        H546   1.081       .  S
C540        C541   1.414       .  A
C541        C542   1.401       .  A
C541        N548   1.429       .  S
C542        C543   1.405       .  A
C542        H547   1.080       .  S
C543        C544   1.413       .  A
C544        N545   1.428       .  S
N545        O549   1.262       .  A
N545        O550   1.262       .  A
N548        O552   1.262       .  A
N548        O551   1.262       .  A
C553        C554   1.407       .  A
C553        C558   1.402       .  A
C553        H560   1.080       .  S
C554        C555   1.414       .  A
C555        C556   1.399       .  A
C555        N562   1.429       .  S
C556        C557   1.402       .  A
C556        H561   1.082       .  S
C557        C558   1.410       .  A
C558        N559   1.429       .  S
N559        O563   1.262       .  A
N559        O564   1.262       .  A
N562        O566   1.262       .  A
N562        O565   1.262       .  A
C567        C568   1.406       .  A
C567        C572   1.402       .  A
C567        H574   1.081       .  S
C568        C569   1.412       .  A
C569        C570   1.403       .  A
C569        N576   1.429       .  S
C570        C571   1.406       .  A
C570        H575   1.080       .  S
C571        C572   1.411       .  A
C572        N573   1.429       .  S
N573        O577   1.262       .  A
N573        O578   1.262       .  A
N576        O580   1.262       .  A
N576        O579   1.262       .  A
C581        C582   1.402       .  A
C581        C586   1.400       .  A
C581        H588   1.081       .  S
C582        C583   1.412       .  A
C583        C584   1.402       .  A
C583        N590   1.429       .  S
C584        C585   1.407       .  A
C584        H589   1.079       .  S
C585        C586   1.416       .  A
C586        N587   1.428       .  S
N587        O591   1.262       .  A
N587        O592   1.262       .  A
N590        O594   1.262       .  A
N590        O593   1.262       .  A
C595        C596   1.407       .  A
C595        C600   1.402       .  A
C595        H602   1.080       .  S
C596        C597   1.415       .  A
C597        C598   1.400       .  A
C597        N604   1.429       .  S
C598        C599   1.403       .  A
C598        H603   1.082       .  S
C599        C600   1.410       .  A
C600        N601   1.429       .  S
N601        O605   1.262       .  A
N601        O606   1.262       .  A
N604        O608   1.262       .  A
N604        O607   1.262       .  A
C609        C610   1.404       .  A
C609        C614   1.400       .  A
C609        H616   1.081       .  S
C610        C611   1.410       .  A
C611        C612   1.397       .  A
C611        N618   1.429       .  S
C612        C613   1.406       .  A
C612        H617   1.081       .  S
C613        C614   1.412       .  A
C614        N615   1.429       .  S
N615        O619   1.262       .  A
N615        O620   1.262       .  A
N618        O622   1.262       .  A
N618        O621   1.262       .  A
C623        C624   1.405       .  A
C623        C628   1.401       .  A
C623        H630   1.081       .  S
C624        C625   1.411       .  A
C625        C626   1.399       .  A
C625        N632   1.429       .  S
C626        C627   1.406       .  A
C626        H631   1.081       .  S
C627        C628   1.414       .  A
C628        N629   1.429       .  S
N629        O633   1.262       .  A
N629        O634   1.262       .  A
N632        O636   1.262       .  A
N632        O635   1.262       .  A
C637        C638   1.408       .  A
C637        C642   1.401       .  A
C637        H644   1.081       .  S
C638        C639   1.414       .  A
C639        C640   1.403       .  A
C639        N646   1.429       .  S
C640        C641   1.405       .  A
C640        H645   1.081       .  S
C641        C642   1.411       .  A
C642        N643   1.429       .  S
N643        O647   1.262       .  A
N643        O648   1.262       .  A
N646        O650   1.262       .  A
N646        O649   1.262       .  A
C651        C652   1.405       .  A
C651        C656   1.400       .  A
C651        H658   1.079       .  S
C652        C653   1.415       .  A
C653        C654   1.401       .  A
C653        N660   1.428       .  S
C654        C655   1.405       .  A
C654        H659   1.081       .  S
C655        C656   1.415       .  A
C656        N657   1.429       .  S
N657        O661   1.262       .  A
N657        O662   1.262       .  A
N660        O664   1.262       .  A
N660        O663   1.262       .  A
C665        C666   1.406       .  A
C665        C670   1.400       .  A
C665        H672   1.084       .  S
C666        C667   1.413       .  A
C667        C668   1.397       .  A
C667        N674   1.429       .  S
C668        C669   1.397       .  A
C668        H673   1.084       .  S
C669        C670   1.404       .  A
C670        N671   1.430       .  S
N671        O675   1.262       .  A
N671        O676   1.262       .  A
N674        O678   1.262       .  A
N674        O677   1.262       .  A
C679        C680   1.405       .  A
C679        C684   1.400       .  A
C679        H686   1.080       .  S
C680        C681   1.413       .  A
C681        C682   1.398       .  A
C681        N688   1.429       .  S
C682        C683   1.406       .  A
C682        H687   1.081       .  S
C683        C684   1.414       .  A
C684        N685   1.429       .  S
N685        O689   1.262       .  A
N685        O690   1.262       .  A
N688        O692   1.262       .  A
N688        O691   1.262       .  A
C693        C694   1.405       .  A
C693        C698   1.399       .  A
C693        H700   1.081       .  S
C694        C695   1.411       .  A
C695        C696   1.398       .  A
C695        N702   1.429       .  S
C696        C697   1.405       .  A
C696        H701   1.081       .  S
C697        C698   1.410       .  A
C698        N699   1.429       .  S
N699        O703   1.262       .  A
N699        O704   1.262       .  A
N702        O706   1.262       .  A
N702        O705   1.262       .  A
C707        C708   1.406       .  A
C707        C712   1.400       .  A
C707        H714   1.080       .  S
C708        C709   1.413       .  A
C709        C710   1.397       .  A
C709        N716   1.428       .  S
C710        C711   1.405       .  A
C710        H715   1.081       .  S
C711        C712   1.414       .  A
C712        N713   1.429       .  S
N713        O717   1.262       .  A
N713        O718   1.262       .  A
N716        O720   1.262       .  A
N716        O719   1.262       .  A
C721        C722   1.408       .  A
C721        C726   1.399       .  A
C721        H728   1.081       .  S
C722        C723   1.413       .  A
C723        C724   1.399       .  A
C723        N730   1.429       .  S
C724        C725   1.404       .  A
C724        H729   1.081       .  S
C725        C726   1.409       .  A
C726        N727   1.429       .  S
N727        O731   1.262       .  A
N727        O732   1.262       .  A
N730        O734   1.262       .  A
N730        O733   1.262       .  A
C735        C736   1.404       .  A
C735        C740   1.399       .  A
C735        H742   1.080       .  S
C736        C737   1.412       .  A
C737        C738   1.399       .  A
C737        N744   1.428       .  S
C738        C739   1.406       .  A
C738        H743   1.081       .  S
C739        C740   1.415       .  A
C740        N741   1.429       .  S
N741        O745   1.262       .  A
N741        O746   1.262       .  A
N744        O748   1.262       .  A
N744        O747   1.262       .  A
C749        C750   1.401       .  A
C749        C754   1.397       .  A
C749        H756   1.081       .  S
C750        C751   1.408       .  A
C751        C752   1.396       .  A
C751        N758   1.429       .  S
C752        C753   1.405       .  A
C752        H757   1.080       .  S
C753        C754   1.414       .  A
C754        N755   1.429       .  S
N755        O759   1.262       .  A
N755        O760   1.262       .  A
N758        O762   1.262       .  A
N758        O761   1.262       .  A
C763        C764   1.405       .  A
C763        C768   1.396       .  A
C763        H770   1.079       .  S
C764        C765   1.416       .  A
C765        C766   1.400       .  A
C765        N772   1.429       .  S
C766        C767   1.402       .  A
C766        H771   1.081       .  S
C767        C768   1.409       .  A
C768        N769   1.429       .  S
N769        O773   1.262       .  A
N769        O774   1.262       .  A
N772        O776   1.262       .  A
N772        O775   1.262       .  A
C777        C778   1.403       .  A
C777        C782   1.399       .  A
C777        H784   1.080       .  S
C778        C779   1.410       .  A
C779        C780   1.398       .  A
C779        N786   1.429       .  S
C780        C781   1.407       .  A
C780        H785   1.081       .  S
C781        C782   1.414       .  A
C782        N783   1.429       .  S
N783        O787   1.262       .  A
N783        O788   1.262       .  A
N786        O790   1.262       .  A
N786        O789   1.262       .  A
C791        C792   1.402       .  A
C791        C796   1.398       .  A
C791        H798   1.082       .  S
C792        C793   1.409       .  A
C793        C794   1.400       .  A
C793        N800   1.429       .  S
C794        C795   1.407       .  A
C794        H799   1.080       .  S
C795        C796   1.414       .  A
C796        N797   1.429       .  S
N797        O801   1.262       .  A
N797        O802   1.262       .  A
N800        O804   1.262       .  A
N800        O803   1.262       .  A
C805        C806   1.408       .  A
C805        C810   1.401       .  A
C805        H812   1.083       .  S
C806        C807   1.415       .  A
C807        C808   1.396       .  A
C807        N814   1.429       .  S
C808        C809   1.397       .  A
C808        H813   1.084       .  S
C809        C810   1.406       .  A
C810        N811   1.430       .  S
N811        O815   1.262       .  A
N811        O816   1.262       .  A
N814        O818   1.262       .  A
N814        O817   1.262       .  A
C819        C820   1.406       .  A
C819        C824   1.401       .  A
C819        H826   1.079       .  S
C820        C821   1.414       .  A
C821        C822   1.397       .  A
C821        N828   1.428       .  S
C822        C823   1.404       .  A
C822        H827   1.081       .  S
C823        C824   1.415       .  A
C824        N825   1.429       .  S
N825        O829   1.262       .  A
N825        O830   1.262       .  A
N828        O832   1.262       .  A
N828        O831   1.262       .  A
C833        C834   1.407       .  A
C833        C838   1.399       .  A
C833        H840   1.081       .  S
C834        C835   1.413       .  A
C835        C836   1.398       .  A
C835        N842   1.429       .  S
C836        C837   1.405       .  A
C836        H841   1.079       .  S
C837        C838   1.413       .  A
C838        N839   1.428       .  S
N839        O843   1.262       .  A
N839        O844   1.262       .  A
N842        O846   1.262       .  A
N842        O845   1.262       .  A
C847        C848   1.405       .  A
C847        C852   1.397       .  A
C847        H854   1.081       .  S
C848        C849   1.413       .  A
C849        C850   1.400       .  A
C849        N856   1.429       .  S
C850        C851   1.404       .  A
C850        H855   1.081       .  S
C851        C852   1.411       .  A
C852        N853   1.429       .  S
N853        O857   1.262       .  A
N853        O858   1.262       .  A
N856        O860   1.262       .  A
N856        O859   1.262       .  A
C861        C862   1.406       .  A
C861        C866   1.401       .  A
C861        H868   1.080       .  S
C862        C863   1.412       .  A
C863        C864   1.397       .  A
C863        N870   1.429       .  S
C864        C865   1.406       .  A
C864        H869   1.081       .  S
C865        C866   1.414       .  A
C866        N867   1.429       .  S
N867        O871   1.262       .  A
N867        O872   1.262       .  A
N870        O874   1.262       .  A
N870        O873   1.262       .  A
C875        C876   1.401       .  A
C875        C880   1.399       .  A
C875        H882   1.082       .  S
C876        C877   1.409       .  A
C877        C878   1.400       .  A
C877        N884   1.429       .  S
C878        C879   1.406       .  A
C878        H883   1.081       .  S
C879        C880   1.413       .  A
C880        N881   1.429       .  S
N881        O885   1.262       .  A
N881        O886   1.261       .  A
N884        O888   1.262       .  A
N884        O887   1.262       .  A
C889        C890   1.406       .  A
C889        C894   1.398       .  A
C889        H896   1.081       .  S
C890        C891   1.415       .  A
C891        C892   1.402       .  A
C891        N898   1.429       .  S
C892        C893   1.404       .  A
C892        H897   1.081       .  S
C893        C894   1.410       .  A
C894        N895   1.429       .  S
N895        O899   1.262       .  A
N895        O900   1.262       .  A
N898        O902   1.262       .  A
N898        O901   1.262       .  A
C903        C904   1.406       .  A
C903        C908   1.398       .  A
C903        H910   1.081       .  S
C904        C905   1.414       .  A
C905        C906   1.400       .  A
C905        N912   1.429       .  S
C906        C907   1.405       .  A
C906        H911   1.080       .  S
C907        C908   1.410       .  A
C908        N909   1.428       .  S
N909        O913   1.262       .  A
N909        O914   1.262       .  A
N912        O916   1.262       .  A
N912        O915   1.262       .  A
C917        C918   1.405       .  A
C917        C922   1.401       .  A
C917        H924   1.081       .  S
C918        C919   1.415       .  A
C919        C920   1.400       .  A
C919        N926   1.429       .  S
C920        C921   1.403       .  A
C920        H925   1.081       .  S
C921        C922   1.411       .  A
C922        N923   1.429       .  S
N923        O927   1.262       .  A
N923        O928   1.262       .  A
N926        O930   1.262       .  A
N926        O929   1.262       .  A
C931        C932   1.403       .  A
C931        C936   1.399       .  A
C931        H938   1.080       .  S
C932        C933   1.412       .  A
C933        C934   1.399       .  A
C933        N940   1.428       .  S
C934        C935   1.405       .  A
C934        H939   1.081       .  S
C935        C936   1.415       .  A
C936        N937   1.429       .  S
N937        O941   1.262       .  A
N937        O942   1.262       .  A
N940        O944   1.262       .  A
N940        O943   1.262       .  A
