geometry optimzed in LAMMPS
_audit_creation_date              2020-12-01 
_audit_creation_method            'lammps2cif' 
_symmetry_space_group_name_H-M    'P1' 
_symmetry_Int_Tables_number       1 
_symmetry_cell_setting            triclinic 
loop_ 
_symmetry_equiv_pos_as_xyz 
  x,y,z 
_cell_length_a                    48.99377267 
_cell_length_b                    49.031258409968565 
_cell_length_c                    58.03522933308868 
_cell_angle_alpha                 90.12255703126642 
_cell_angle_beta                  90.05595280144028 
_cell_angle_gamma                 89.96309706372926 
loop_ 
_atom_site_label 
_atom_site_type_symbol 
_atom_site_fract_x 
_atom_site_fract_y 
_atom_site_fract_z 
_atom_site_charge 
N1          N  0.22126516  0.76257488  0.26805518    -0.36500
N2          N  0.21024682  0.71082862  0.24471532    -0.57100
N3          N  0.26260593  0.71476941  0.22161803    -0.36500
N4          N  0.27212758  0.76790584  0.24291123    -0.57100
C5          C  0.19541369  0.75804761  0.27521519     0.27100
C6          C  0.22767713  0.78865262  0.27354734     0.27100
C7          C  0.25130687  0.69381001  0.20979204     0.27100
C8          C  0.28444240  0.72336785  0.20941130     0.27100
C9          C  0.18930931  0.71063083  0.25981856     0.35700
C10         C  0.21061377  0.68597251  0.23461611     0.35700
C11         C  0.27447792  0.79013526  0.25655379     0.35700
C12         C  0.29667929  0.76431993  0.23282962     0.35700
C13         C  0.18548045  0.78137941  0.28589752    -0.21800
C14         C  0.20578886  0.80067479  0.28480073    -0.21800
C15         C  0.26637555  0.68882785  0.19000048    -0.21800
C16         C  0.28728597  0.70748844  0.18976347    -0.21800
C17         C  0.17604628  0.68565125  0.25902942    -0.22900
C18         C  0.18956966  0.67002143  0.24306003    -0.22900
C19         C  0.30049667  0.80101917  0.25480267    -0.22900
C20         C  0.31462931  0.78454247  0.23991016    -0.22900
C21         C  0.18096831  0.73308853  0.27341968    -0.18200
C22         C  0.25320523  0.80146416  0.26988136    -0.18200
C23         C  0.30258909  0.74438496  0.21596382    -0.18200
C24         C  0.22877159  0.67798455  0.21699111    -0.18200
H25         H  0.16571151  0.78421794  0.29385226     0.14700
H26         H  0.20463662  0.82113120  0.29177899     0.14700
H27         H  0.26279864  0.67323784  0.17711691     0.14700
H28         H  0.30286806  0.70912506  0.17663185     0.14700
H29         H  0.15831657  0.67939392  0.26878642     0.13000
H30         H  0.18435832  0.64937997  0.23809082     0.13000
H31         H  0.30848602  0.81898621  0.26331165     0.13000
H32         H  0.33560524  0.78742046  0.23461595     0.13000
H33         H  0.23458438  0.74786162  0.26198962     0.26200
H34         H  0.25775088  0.72071970  0.23827656     0.26200
N35         N  0.54686715  0.78828770  0.14963817    -0.27200
N36         N  0.53374102  0.77998279  0.16819927    -0.35100
C37         C  0.55185055  0.77548904  0.18515522     0.01100
C38         C  0.57784754  0.78109535  0.17697319     0.07200
C39         C  0.57368359  0.78961220  0.15440017    -0.05900
H40         H  0.54644245  0.76761256  0.20193035     0.07800
H41         H  0.58883059  0.79600153  0.14203590     0.09000
Cu42       Cu  0.49214172  0.77321242  0.16941782     0.44200
Cu43       Cu  0.52838261  0.79418851  0.11782049     0.42000
Cu44       Cu  0.45638737  0.77996231  0.11495990     0.43900
N45         N  0.45076645  0.76644491  0.16550905    -0.34600
N46         N  0.43779370  0.76904097  0.14565807    -0.28900
C47         C  0.41117906  0.76387937  0.14893837    -0.05000
C48         C  0.40719341  0.75743886  0.17188542     0.07300
C49         C  0.43274078  0.75953079  0.18195468     0.01100
H50         H  0.39574958  0.76509894  0.13563007     0.08700
H51         H  0.43781296  0.75750596  0.19999734     0.07800
N52         N  0.47968213  0.78967971  0.08631677    -0.36000
N53         N  0.50612340  0.79480703  0.08735293    -0.28200
C54         C  0.51546418  0.79949621  0.06593746    -0.03500
C55         C  0.49385304  0.79713712  0.05058876     0.05100
C56         C  0.47146277  0.79107005  0.06422810     0.03200
H57         H  0.53645173  0.80438202  0.06195379     0.08300
H58         H  0.45080038  0.78728377  0.05846331     0.07200
N59         N  0.55264683  0.78706629  0.85653872    -0.27200
N60         N  0.54107018  0.78156615  0.83649859    -0.35100
C61         C  0.56063842  0.77536557  0.82111694     0.01100
C62         C  0.58570643  0.77704978  0.83209967     0.07200
C63         C  0.57983390  0.78468695  0.85448548    -0.05900
H64         H  0.55685915  0.77031909  0.80324349     0.07800
H65         H  0.59422502  0.78787134  0.86838445     0.09000
Cu66       Cu  0.49918121  0.78184339  0.83156958     0.44200
Cu67       Cu  0.53110023  0.79614743  0.88604540     0.42000
Cu68       Cu  0.45816760  0.78865969  0.88405819     0.43900
N69         N  0.45699295  0.77898582  0.83238328    -0.34600
N70         N  0.44222428  0.78067110  0.85138558    -0.28900
C71         C  0.41585149  0.77655884  0.84595854    -0.05000
C72         C  0.41373153  0.77243501  0.82231408     0.07300
C73         C  0.44038894  0.77399438  0.81439956     0.01100
H74         H  0.39964148  0.77602902  0.85855499     0.08700
H75         H  0.44733388  0.77169415  0.79681704     0.07800
N76         N  0.47965698  0.79744366  0.91421776    -0.36000
N77         N  0.50642421  0.80054498  0.91454391    -0.28200
C78         C  0.51477349  0.80441924  0.93632546    -0.03500
C79         C  0.49223472  0.80372463  0.95069048     0.05100
C80         C  0.47024093  0.79926144  0.93597965     0.03200
H81         H  0.53592316  0.80662375  0.94135464     0.08300
H82         H  0.44917517  0.79601099  0.94077634     0.07200
N83         N  0.05037249  0.72827006  0.35318011    -0.27200
N84         N  0.03582770  0.72608676  0.33408121    -0.35100
C85         C  0.05271178  0.72530519  0.31587537     0.01100
C86         C  0.07930484  0.72735298  0.32378723     0.07200
C87         C  0.07698548  0.72896204  0.34757980    -0.05900
H88         H  0.04590339  0.72347028  0.29821880     0.07800
H89         H  0.09339809  0.73134043  0.35990460     0.09000
Cu90       Cu  0.99371087  0.72673921  0.33296533     0.44200
Cu91       Cu  0.03327225  0.73225456  0.38576606     0.42000
Cu92       Cu  0.95981485  0.74392579  0.38559659     0.43900
N93         N  0.95216790  0.73346185  0.33498796    -0.34600
N94         N  0.93967512  0.74026086  0.35430298    -0.28900
C95         C  0.91305959  0.74434414  0.34983917    -0.05000
C96         C  0.90854698  0.74011798  0.32648995     0.07300
C97         C  0.93390669  0.73302284  0.31769852     0.01100
H98         H  0.89820501  0.75050022  0.36261230     0.08700
H99         H  0.93891191  0.72772668  0.30011631     0.07800
N100        N  0.98378181  0.74422600  0.41507102    -0.36000
N101        N  0.01037416  0.73959141  0.41526773    -0.28200
C102        C  0.01922693  0.73974076  0.43722656    -0.03500
C103        C  0.99718273  0.74496043  0.45152431     0.05100
C104        C  0.97504742  0.74743736  0.43685759     0.03200
H105        H  0.03991092  0.73501194  0.44234976     0.08300
H106        H  0.95397226  0.75064649  0.44171523     0.07200
N107        N  0.94298461  0.74168930  0.65112555    -0.27200
N108        N  0.95660479  0.73812985  0.67056249    -0.35100
C109        C  0.93899926  0.73929723  0.68833786     0.01100
C110        C  0.91300114  0.74350900  0.67961704     0.07200
C111        C  0.91640816  0.74508521  0.65597977    -0.05900
H112        H  0.94467701  0.73697892  0.70624909     0.07800
H113        H  0.90081321  0.74885258  0.64317502     0.09000
Cu114      Cu  0.99847376  0.73225987  0.67184775     0.44200
Cu115      Cu  0.96059716  0.74182354  0.61865031     0.42000
Cu116      Cu  0.03338579  0.73325663  0.61645812     0.43900
N117        N  0.04044214  0.72953646  0.66812081    -0.34600
N118        N  0.05319193  0.72992973  0.64804495    -0.28900
C119        C  0.08026068  0.72839804  0.65177735    -0.05000
C120        C  0.08474335  0.72723134  0.67531388     0.07300
C121        C  0.05902799  0.72790762  0.68512236     0.01100
H122        H  0.09558308  0.72874616  0.63836800     0.08700
H123        H  0.05412333  0.72730206  0.70328385     0.07800
N124        N  0.00903077  0.73640996  0.58722016    -0.36000
N125        N  0.98227543  0.73962199  0.58803547    -0.28200
C126        C  0.97245071  0.74121984  0.56641639    -0.03500
C127        C  0.99407103  0.73862331  0.55116979     0.05100
C128        C  0.01695547  0.73587870  0.56504094     0.03200
H129        H  0.95128128  0.74503182  0.56231375     0.08300
H130        H  0.03788940  0.73374647  0.55939500     0.07200
N131        N  0.27780661  0.71816375  0.76577523    -0.36500
N132        N  0.22506426  0.70863771  0.74389938    -0.57100
N133        N  0.23072786  0.75999640  0.71927647    -0.36500
N134        N  0.28478268  0.76797138  0.73922978    -0.57100
C135        C  0.27292675  0.69235244  0.77285266     0.27100
C136        C  0.30407612  0.72406265  0.77096448     0.27100
C137        C  0.20813405  0.74981009  0.70897454     0.27100
C138        C  0.23974802  0.78093647  0.70617833     0.27100
C139        C  0.22454284  0.68831914  0.75956159     0.35700
C140        C  0.19949283  0.71061611  0.73532992     0.35700
C141        C  0.30650366  0.77050786  0.75346912     0.35700
C142        C  0.28203069  0.79215656  0.72832648     0.35700
C143        C  0.29639103  0.68175186  0.78281490    -0.21800
C144        C  0.31598096  0.70180797  0.78175082    -0.21800
C145        C  0.20250556  0.76471002  0.68923540    -0.21800
C146        C  0.22248398  0.78429345  0.68744196    -0.21800
C147        C  0.19861113  0.67708198  0.76069978    -0.22900
C148        C  0.18273640  0.69121170  0.74532043    -0.22900
C149        C  0.31795359  0.79620955  0.75120045    -0.22900
C150        C  0.30245355  0.80991726  0.73529562    -0.22900
C151        C  0.24739674  0.67879492  0.77205081    -0.18200
C152        C  0.31691178  0.74964694  0.76782032    -0.18200
C153        C  0.26212540  0.79815644  0.71140567    -0.18200
C154        C  0.19141245  0.72866604  0.71767971    -0.18200
H155        H  0.29898984  0.66183623  0.79052398     0.14700
H156        H  0.33653823  0.70025476  0.78845822     0.14700
H157        H  0.18557961  0.76196872  0.67745759     0.14700
H158        H  0.22388458  0.79954861  0.67404347     0.14700
H159        H  0.19184512  0.66038443  0.77144043     0.13000
H160        H  0.16136392  0.68749662  0.74178296     0.13000
H161        H  0.33571494  0.80424079  0.75999039     0.13000
H162        H  0.30586295  0.83061196  0.72952190     0.13000
H163        H  0.26321675  0.73204143  0.76040278     0.26200
H164        H  0.23758687  0.75512759  0.73564953     0.26200
N165        N  0.43930404  0.21509559  0.15115770    -0.27200
N166        N  0.45195835  0.22408737  0.16978675    -0.35100
C167        C  0.43322972  0.23026201  0.18591173     0.01100
C168        C  0.40731828  0.22455275  0.17723716     0.07200
C169        C  0.41230485  0.21496933  0.15506626    -0.05900
H170        H  0.43851372  0.23900630  0.20239273     0.07800
H171        H  0.39747515  0.20847507  0.14240344     0.09000
Cu172      Cu  0.49413859  0.22773346  0.17276537     0.44200
Cu173      Cu  0.45832601  0.20525700  0.12029925     0.42000
Cu174      Cu  0.53100889  0.21089795  0.12085648     0.43900
N175        N  0.53653105  0.22763561  0.17063562    -0.34600
N176        N  0.54982887  0.22121284  0.15158317    -0.28900
C177        C  0.57681001  0.22273030  0.15553781    -0.05000
C178        C  0.58084028  0.23014590  0.17831562     0.07300
C179        C  0.55480822  0.23341615  0.18727943     0.01100
H180        H  0.59216568  0.21945143  0.14247844     0.08700
H181        H  0.54956091  0.23929920  0.20470019     0.07800
N182        N  0.50882847  0.20252819  0.09133377    -0.36000
N183        N  0.48196972  0.20024151  0.09095110    -0.28200
C184        C  0.47370163  0.19690190  0.06897955    -0.03500
C185        C  0.49650740  0.19743893  0.05489733     0.05100
C186        C  0.51840325  0.20081717  0.06970806     0.03200
H187        H  0.45260034  0.19582114  0.06354186     0.08300
H188        H  0.53967292  0.20292937  0.06505512     0.07200
N189        N  0.55936123  0.22002867  0.86006093    -0.27200
N190        N  0.54662387  0.22143661  0.84003900    -0.35100
C191        C  0.56516431  0.22504378  0.82327204     0.01100
C192        C  0.59105190  0.22611470  0.83306484     0.07200
C193        C  0.58634383  0.22298944  0.85656593    -0.05900
H194        H  0.56000755  0.22664320  0.80520774     0.07800
H195        H  0.60111257  0.22340653  0.87037878     0.09000
Cu196      Cu  0.50453713  0.21907861  0.83633078     0.44200
Cu197      Cu  0.53945565  0.21363545  0.89121491     0.42000
Cu198      Cu  0.46697002  0.20038066  0.88757190     0.43900
N199        N  0.46236330  0.21523685  0.83739263    -0.34600
N200        N  0.44881979  0.20757177  0.85592056    -0.28900
C201        C  0.42208564  0.20613387  0.85087966    -0.05000
C202        C  0.41832016  0.21359381  0.82799642     0.07300
C203        C  0.44452695  0.21916219  0.82011303     0.01100
H204        H  0.40703051  0.19943150  0.86311664     0.08700
H205        H  0.45031350  0.22569237  0.80301287     0.07800
N206        N  0.48869207  0.19967608  0.91819791    -0.36000
N207        N  0.51502108  0.20530348  0.91961239    -0.28200
C208        C  0.52251689  0.20510739  0.94190399    -0.03500
C209        C  0.49989145  0.19880860  0.95518431     0.05100
C210        C  0.47877761  0.19557605  0.93952554     0.03200
H211        H  0.54292767  0.20945645  0.94801461     0.08300
H212        H  0.45753029  0.19169360  0.94334782     0.07200
N213        N  0.22463269  0.43360616  0.14265819    -0.27200
N214        N  0.21852585  0.44732696  0.16159509    -0.35100
C215        C  0.21385453  0.42955688  0.17875926     0.01100
C216        C  0.21700560  0.40329896  0.17025515     0.07200
C217        C  0.22396041  0.40674612  0.14728318    -0.05900
H218        H  0.20888862  0.43538997  0.19624793     0.07800
H219        H  0.22923249  0.39100596  0.13498685     0.09000
Cu220      Cu  0.21769824  0.48958697  0.16356575     0.44200
Cu221      Cu  0.23436933  0.45187267  0.11145886     0.42000
Cu222      Cu  0.23041269  0.52526021  0.11011408     0.43900
N223        N  0.21768622  0.53175714  0.16054452    -0.34600
N224        N  0.22178868  0.54469771  0.14089911    -0.28900
C225        C  0.22138760  0.57173054  0.14477642    -0.05000
C226        C  0.21671735  0.57607016  0.16800231     0.07300
C227        C  0.21477313  0.55025958  0.17749673     0.01100
H228        H  0.22592360  0.58691486  0.13185685     0.08700
H229        H  0.21219812  0.54529985  0.19552062     0.07800
N230        N  0.23877293  0.50164613  0.08143287    -0.36000
N231        N  0.24055071  0.47475660  0.08183400    -0.28200
C232        C  0.24410108  0.46556929  0.06016825    -0.03500
C233        C  0.24464277  0.48780339  0.04547969     0.05100
C234        C  0.24103318  0.51028529  0.05957181     0.03200
H235        H  0.24431547  0.44424642  0.05537560     0.08300
H236        H  0.23903003  0.53131313  0.05420667     0.07200
N237        N  0.24039640  0.54422896  0.84786107    -0.27200
N238        N  0.24706948  0.53113878  0.82880385    -0.35100
C239        C  0.24804869  0.54896780  0.81130604     0.01100
C240        C  0.24118312  0.57476392  0.81952108     0.07200
C241        C  0.23657880  0.57072297  0.84293375    -0.05900
H242        H  0.25415332  0.54321887  0.79411828     0.07800
H243        H  0.23112303  0.58585694  0.85568953     0.09000
Cu244      Cu  0.25358213  0.48944724  0.82703894     0.44200
Cu245      Cu  0.23840122  0.52562685  0.87980837     0.42000
Cu246      Cu  0.24350496  0.45180636  0.87976430     0.43900
N247        N  0.25294277  0.44724638  0.82853707    -0.34600
N248        N  0.24815491  0.43349697  0.84763211    -0.28900
C249        C  0.24722474  0.40675222  0.84257131    -0.05000
C250        C  0.25169030  0.40324943  0.81906101     0.07300
C251        C  0.25551487  0.42962859  0.81088101     0.01100
H252        H  0.24321393  0.39108566  0.85519589     0.08700
H253        H  0.26007293  0.43594082  0.79349958     0.07800
N254        N  0.24126102  0.47535383  0.90956622    -0.36000
N255        N  0.23936034  0.50225500  0.90947347    -0.28200
C256        C  0.23891605  0.51140287  0.93132025    -0.03500
C257        C  0.24034875  0.48918619  0.94592943     0.05100
C258        C  0.24211861  0.46668845  0.93154488     0.03200
H259        H  0.23849639  0.53272536  0.93607998     0.08300
H260        H  0.24392987  0.44556886  0.93669129     0.07200
N261        N  0.93982018  0.28771233  0.35926915    -0.27200
N262        N  0.95169686  0.27775244  0.34063921    -0.35100
C263        C  0.93243961  0.27231844  0.32478007     0.01100
C264        C  0.90701574  0.27919931  0.33367338     0.07200
C265        C  0.91274388  0.28914606  0.35562049    -0.05900
H266        H  0.93672456  0.26381193  0.30795662     0.07800
H267        H  0.89876041  0.29748342  0.36808722     0.09000
Cu268      Cu  0.99357753  0.27275095  0.33703137     0.44200
Cu269      Cu  0.96047067  0.29782296  0.38942975     0.42000
Cu270      Cu  0.03315424  0.29021761  0.38785826     0.43900
N271        N  0.03591761  0.27113638  0.33820656    -0.34600
N272        N  0.05016552  0.27777761  0.35674120    -0.28900
C273        C  0.07686479  0.27471647  0.35216758    -0.05000
C274        C  0.07974564  0.26591240  0.32959450     0.07300
C275        C  0.05326579  0.26368234  0.32132169     0.01100
H276        H  0.09293285  0.27826667  0.36459606     0.08700
H277        H  0.04707137  0.25750411  0.30418799     0.07800
N278        N  0.01181207  0.29884185  0.41797477    -0.36000
N279        N  0.98500067  0.30159236  0.41852090    -0.28200
C280        C  0.97692670  0.30388935  0.44059135    -0.03500
C281        C  0.99973351  0.30272285  0.45474405     0.05100
C282        C  0.02150920  0.29935938  0.43969756     0.03200
H283        H  0.95584005  0.30502510  0.44602938     0.08300
H284        H  0.04254580  0.29532144  0.44412414     0.07200
N285        N  0.95074200  0.27823245  0.65526706    -0.27200
N286        N  0.96538229  0.27421286  0.67408303    -0.35100
C287        C  0.94845380  0.27096695  0.69213520     0.01100
C288        C  0.92172377  0.27275270  0.68428649     0.07200
C289        C  0.92412433  0.27763430  0.66084276    -0.05900
H290        H  0.95536448  0.26832519  0.70965538     0.07800
H291        H  0.90764084  0.28028730  0.64863323     0.09000
Cu292      Cu  0.00772347  0.27313718  0.67406189     0.44200
Cu293      Cu  0.96755640  0.28399312  0.62274027     0.42000
Cu294      Cu  0.04112031  0.28266918  0.61841469     0.43900
N295        N  0.04962767  0.27148906  0.66916410    -0.34600
N296        N  0.06180455  0.27503396  0.64907096    -0.28900
C297        C  0.08888651  0.27193588  0.65190309    -0.05000
C298        C  0.09405242  0.26590164  0.67483613     0.07300
C299        C  0.06860656  0.26604925  0.68525872     0.01100
H300        H  0.10367923  0.27340452  0.63813541     0.08700
H301        H  0.06406399  0.26270697  0.70325919     0.07800
N302        N  0.01537653  0.28752941  0.59016524    -0.36000
N303        N  0.98848097  0.28792775  0.59174782    -0.28200
C304        C  0.97775185  0.29086566  0.57052858    -0.03500
C305        C  0.99891286  0.29211747  0.55464364     0.05100
C306        C  0.02244831  0.29017585  0.56788596     0.03200
H307        H  0.95614649  0.29266702  0.56726345     0.08300
H308        H  0.04327426  0.29031257  0.56170514     0.07200
N309        N  0.28450246  0.04649407  0.34291187    -0.27200
N310        N  0.28244285  0.03368755  0.32291638    -0.35100
C311        C  0.27899815  0.05218828  0.30613538     0.01100
C312        C  0.27925373  0.07781288  0.31605831     0.07200
C313        C  0.28259488  0.07346198  0.33938392    -0.05900
H314        H  0.27547710  0.04729350  0.28818901     0.07800
H315        H  0.28175446  0.08853638  0.35299479     0.09000
Cu316      Cu  0.28133460  0.99182983  0.31934112     0.44200
Cu317      Cu  0.28588886  0.02736292  0.37450859     0.42000
Cu318      Cu  0.27916596  0.95493057  0.37325483     0.43900
N319        N  0.27750796  0.94999876  0.32145193    -0.34600
N320        N  0.27646218  0.93673794  0.34120700    -0.28900
C321        C  0.27288975  0.91009857  0.33694353    -0.05000
C322        C  0.27153015  0.90623081  0.31332112     0.07300
C323        C  0.27471663  0.93208735  0.30403026     0.01100
H324        H  0.27086382  0.89475696  0.35019460     0.08700
H325        H  0.27521279  0.93765658  0.28602574     0.07800
N326        N  0.28117715  0.97714198  0.40347374    -0.36000
N327        N  0.28359044  0.00393840  0.40392019    -0.28200
C328        C  0.28393205  0.01244980  0.42592298    -0.03500
C329        C  0.28153146  0.98987707  0.44010038     0.05100
C330        C  0.28002471  0.96779046  0.42519160     0.03200
H331        H  0.28554723  0.03357326  0.43116713     0.08300
H332        H  0.27867367  0.94643785  0.42965530     0.07200
N333        N  0.27461233  0.04263441  0.63891998    -0.27200
N334        N  0.27438090  0.02863542  0.65837642    -0.35100
C335        C  0.27239744  0.04618117  0.67616366     0.01100
C336        C  0.27124589  0.07240767  0.66741146     0.07200
C337        C  0.27291998  0.06937285  0.64379211    -0.05900
H338        H  0.27271750  0.04025768  0.69409865     0.07800
H339        H  0.27305641  0.08545871  0.63105890     0.09000
Cu340      Cu  0.27778891  0.98641893  0.65998001     0.44200
Cu341      Cu  0.27800748  0.02539973  0.60649477     0.42000
Cu342      Cu  0.28559935  0.95241390  0.60514888     0.43900
N343        N  0.28081021  0.94433670  0.65637995    -0.34600
N344        N  0.28382192  0.93201036  0.63628091    -0.28900
C345        C  0.28312869  0.90486350  0.63941435    -0.05000
C346        C  0.27972172  0.89969642  0.66270252     0.07300
C347        C  0.27816928  0.92529014  0.67287022     0.01100
H348        H  0.28318891  0.89025950  0.62546570     0.08700
H349        H  0.27453866  0.92974186  0.69087595     0.07800
N350        N  0.28426398  0.97639385  0.57588709    -0.36000
N351        N  0.28181216  0.00322521  0.57632082    -0.28200
C352        C  0.28146766  0.01262741  0.55457363    -0.03500
C353        C  0.28372455  0.99057354  0.53975557     0.05100
C354        C  0.28527493  0.96793994  0.55387446     0.03200
H355        H  0.27906049  0.03385317  0.54993795     0.08300
H356        H  0.28706346  0.94685503  0.54855061     0.07200
N357        N  0.23768206  0.21613273  0.72047472    -0.36500
N358        N  0.29000016  0.20641046  0.74234966    -0.57100
N359        N  0.28391896  0.25772454  0.76681704    -0.36500
N360        N  0.23297536  0.26853065  0.74367723    -0.57100
C361        C  0.24669822  0.19464514  0.70796197     0.27100
C362        C  0.21652234  0.22728393  0.70884247     0.27100
C363        C  0.31043563  0.25172371  0.77072956     0.27100
C364        C  0.28078139  0.28472967  0.77088009     0.27100
C365        C  0.28625054  0.18168697  0.73255906     0.35700
C366        C  0.31056066  0.20357895  0.75768228     0.35700
C367        C  0.20748040  0.26649993  0.73502941     0.35700
C368        C  0.23239021  0.28890433  0.75937698     0.35700
C369        C  0.23104012  0.19206486  0.68815191    -0.21800
C370        C  0.21195821  0.21265771  0.68872285    -0.21800
C371        C  0.32434927  0.27514508  0.77717736    -0.21800
C372        C  0.30563854  0.29605060  0.77713535    -0.21800
C373        C  0.30485948  0.16313107  0.74138674    -0.22900
C374        C  0.32015192  0.17697496  0.75747413    -0.22900
C375        C  0.19062698  0.28585293  0.74512502    -0.22900
C376        C  0.20643578  0.30002654  0.76064367    -0.22900
C377        C  0.26731626  0.17614528  0.71479041    -0.18200
C378        C  0.19986763  0.24883012  0.71690056    -0.18200
C379        C  0.25559457  0.29874562  0.77116678    -0.18200
C380        C  0.32180097  0.22526084  0.77063001    -0.18200
H381        H  0.23286655  0.17665413  0.67485784     0.14700
H382        H  0.19620706  0.21614595  0.67597494     0.14700
H383        H  0.34569557  0.27687024  0.78177627     0.14700
H384        H  0.30968576  0.31704169  0.78181924     0.14700
H385        H  0.30725255  0.14190133  0.73664730     0.13000
H386        H  0.33670325  0.16852087  0.76754778     0.13000
H387        H  0.16928372  0.28959491  0.74147715     0.13000
H388        H  0.19971013  0.31681384  0.77136749     0.13000
H389        H  0.24331352  0.22076769  0.73728615     0.26200
H390        H  0.26829120  0.24356992  0.76473712     0.26200
N391        N  0.25810430  0.26402022  0.22236868    -0.36500
N392        N  0.26926430  0.21256488  0.24489776    -0.57100
N393        N  0.21741481  0.21610998  0.26933269    -0.36500
N394        N  0.20781639  0.26930691  0.24875413    -0.57100
C395        C  0.28470813  0.26070308  0.21674388     0.27100
C396        C  0.25153112  0.29023001  0.21782651     0.27100
C397        C  0.22880649  0.19447003  0.28008034     0.27100
C398        C  0.19655937  0.22492797  0.28267848     0.27100
C399        C  0.29024741  0.21277256  0.22983025     0.35700
C400        C  0.26838207  0.18716524  0.25375324     0.35700
C401        C  0.20467907  0.29094728  0.23458472     0.35700
C402        C  0.18396275  0.26642033  0.26018099     0.35700
C403        C  0.29504038  0.28497181  0.20822491    -0.21800
C404        C  0.27406057  0.30357153  0.20877255    -0.21800
C405        C  0.21469924  0.18911238  0.30028114    -0.21800
C406        C  0.19434435  0.20834989  0.30192486    -0.21800
C407        C  0.30283219  0.18747038  0.22918119    -0.22900
C408        C  0.28890343  0.17119108  0.24427747    -0.22900
C409        C  0.17887808  0.30208104  0.23723775    -0.22900
C410        C  0.16575931  0.28656905  0.25346651    -0.22900
C411        C  0.29952454  0.23602395  0.21795167    -0.18200
C412        C  0.22545854  0.30214265  0.22064627    -0.18200
C413        C  0.17881044  0.24685907  0.27753591    -0.18200
C414        C  0.25096858  0.17883028  0.27175382    -0.18200
H415        H  0.31549634  0.28880883  0.20200231     0.14700
H416        H  0.27531108  0.32455527  0.20313195     0.14700
H417        H  0.21864590  0.17301093  0.31257577     0.14700
H418        H  0.17957084  0.20991342  0.31572056     0.14700
H419        H  0.32041298  0.18146282  0.21908872     0.13000
H420        H  0.29368240  0.15013638  0.24814943     0.13000
H421        H  0.17053476  0.31980856  0.22866062     0.13000
H422        H  0.14522132  0.28989116  0.25973217     0.13000
H423        H  0.24443211  0.24868244  0.22660973     0.26200
H424        H  0.22187732  0.22267632  0.25279059     0.26200
N425        N  0.72042055  0.27983479  0.23333662    -0.36500
N426        N  0.77325142  0.28662218  0.25569053    -0.57100
N427        N  0.76489614  0.23560723  0.27987009    -0.36500
N428        N  0.71325375  0.22771040  0.25596251    -0.57100
C429        C  0.73091391  0.30077507  0.22110291     0.27100
C430        C  0.69949216  0.26941637  0.22091321     0.27100
C431        C  0.79147181  0.24037831  0.28487263     0.27100
C432        C  0.75963992  0.20927795  0.28521980     0.27100
C433        C  0.77042240  0.31171507  0.24641384     0.35700
C434        C  0.79408655  0.28826442  0.27091135     0.35700
C435        C  0.68831217  0.23014212  0.24620092     0.35700
C436        C  0.71158906  0.20689731  0.27111742     0.35700
C437        C  0.71638395  0.30386945  0.20075989    -0.21800
C438        C  0.69663647  0.28395769  0.20057290    -0.21800
C439        C  0.80321361  0.21680948  0.29358227    -0.21800
C440        C  0.78310728  0.19725393  0.29394630    -0.21800
C441        C  0.78971178  0.32932999  0.25558317    -0.22900
C442        C  0.80468315  0.31447558  0.27115879    -0.22900
C443        C  0.67077352  0.21063821  0.25504169    -0.22900
C444        C  0.68555002  0.19583037  0.27076201    -0.22900
C445        C  0.75192816  0.31838555  0.22861943    -0.18200
C446        C  0.68179698  0.24835099  0.22816521    -0.18200
C447        C  0.73379473  0.19641891  0.28391314    -0.18200
C448        C  0.80486528  0.26591880  0.28333720    -0.18200
H449        H  0.71949659  0.31908761  0.18753826     0.14700
H450        H  0.68154812  0.28087513  0.18718470     0.14700
H451        H  0.82401640  0.21408026  0.29943714     0.14700
H452        H  0.78551181  0.17661693  0.30018979     0.14700
H453        H  0.79284913  0.35057711  0.25131858     0.13000
H454        H  0.82163656  0.32203272  0.28128536     0.13000
H455        H  0.64966141  0.20715347  0.25039113     0.13000
H456        H  0.67805220  0.17861616  0.28052053     0.13000
H457        H  0.72508365  0.27519944  0.25034936     0.26200
H458        H  0.75040657  0.25026401  0.27577132     0.26200
N459        N  0.77021682  0.45123983  0.15302359    -0.27200
N460        N  0.76830307  0.46446156  0.17283660    -0.35100
C461        C  0.76543264  0.44626919  0.18995696     0.01100
C462        C  0.76597704  0.42038330  0.18047460     0.07200
C463        C  0.76899818  0.42427635  0.15702904    -0.05900
H464        H  0.76311394  0.45150382  0.20796925     0.07800
H465        H  0.76943007  0.40872815  0.14377772     0.09000
Cu466      Cu  0.76915811  0.50656094  0.17577167     0.44200
Cu467      Cu  0.77248140  0.47028565  0.12131802     0.42000
Cu468      Cu  0.76882723  0.54375636  0.12194850     0.43900
N469        N  0.76780890  0.54870375  0.17373568    -0.34600
N470        N  0.76692257  0.56214600  0.15406713    -0.28900
C471        C  0.76431461  0.58889313  0.15853305    -0.05000
C472        C  0.76350656  0.59270774  0.18224106     0.07300
C473        C  0.76613807  0.56659423  0.19126696     0.01100
H474        H  0.76251646  0.60431706  0.14533080     0.08700
H475        H  0.76688045  0.56071147  0.20917977     0.07800
N476        N  0.77069976  0.52078659  0.09200645    -0.36000
N477        N  0.77212311  0.49388313  0.09183149    -0.28200
C478        C  0.77259970  0.48508719  0.06990234    -0.03500
C479        C  0.77120348  0.50752454  0.05550137     0.05100
C480        C  0.77024055  0.52985821  0.07016452     0.03200
H481        H  0.77345279  0.46385363  0.06484678     0.08300
H482        H  0.76959091  0.55116640  0.06542550     0.07200
N483        N  0.78300965  0.56216249  0.85852753    -0.27200
N484        N  0.78260328  0.54954661  0.83835999    -0.35100
C485        C  0.78142581  0.56853674  0.82161477     0.01100
C486        C  0.78147771  0.59420240  0.83179773     0.07200
C487        C  0.78217600  0.58923251  0.85520642    -0.05900
H488        H  0.78013949  0.56403169  0.80338812     0.07800
H489        H  0.78061840  0.60400398  0.86898497     0.09000
Cu490      Cu  0.78204491  0.50701077  0.83489380     0.44200
Cu491      Cu  0.78226662  0.54310565  0.89018236     0.42000
Cu492      Cu  0.77773820  0.47080451  0.88944248     0.43900
N493        N  0.77945655  0.46451305  0.83777055    -0.34600
N494        N  0.77778644  0.45170577  0.85773796    -0.28900
C495        C  0.77516602  0.42479547  0.85398478    -0.05000
C496        C  0.77495494  0.42013262  0.83046205     0.07300
C497        C  0.77799557  0.44586807  0.82072162     0.01100
H498        H  0.77276692  0.40980813  0.86748443     0.08700
H499        H  0.77901871  0.45081179  0.80259934     0.07800
N500        N  0.77697128  0.49338739  0.91944739    -0.36000
N501        N  0.77859374  0.52024744  0.91981660    -0.28200
C502        C  0.77730853  0.52893799  0.94177414    -0.03500
C503        C  0.77504330  0.50633517  0.95590410     0.05100
C504        C  0.77471679  0.48415470  0.94111672     0.03200
H505        H  0.77836321  0.55008555  0.94706387     0.08300
H506        H  0.77267601  0.46287355  0.94565818     0.07200
N507        N  0.71732954  0.06361541  0.36181430    -0.27200
N508        N  0.71562230  0.05138133  0.34157920    -0.35100
C509        C  0.71625572  0.07031841  0.32491876     0.01100
C510        C  0.71864055  0.09588377  0.33501754     0.07200
C511        C  0.71943887  0.09068254  0.35854004    -0.05900
H512        H  0.71570981  0.06568622  0.30669191     0.07800
H513        H  0.72276760  0.10499676  0.37238124     0.09000
Cu514      Cu  0.71546568  0.00946731  0.33727679     0.44200
Cu515      Cu  0.71759986  0.04280778  0.39290593     0.42000
Cu516      Cu  0.71237404  0.96943676  0.38962670     0.43900
N517        N  0.71746721  0.96730604  0.33788188    -0.34600
N518        N  0.71535792  0.95276918  0.35695629    -0.28900
C519        C  0.71691705  0.92615974  0.35159460    -0.05000
C520        C  0.72036367  0.92384488  0.32803676     0.07300
C521        C  0.72085332  0.95031214  0.31988024     0.01100
H522        H  0.71613439  0.90974476  0.36400441     0.08700
H523        H  0.72311771  0.95673429  0.30216103     0.07800
N524        N  0.71353919  0.99078609  0.42039090    -0.36000
N525        N  0.71556948  0.01762162  0.42153135    -0.28200
C526        C  0.71519141  0.02530473  0.44375207    -0.03500
C527        C  0.71296566  0.00220241  0.45734265     0.05100
C528        C  0.71193933  0.98065181  0.44187466     0.03200
H529        H  0.71619512  0.04625898  0.44956516     0.08300
H530        H  0.70924473  0.95927057  0.44579169     0.07200
N531        N  0.71974180  0.06160374  0.65187977    -0.27200
N532        N  0.72650463  0.04862645  0.67099280    -0.35100
C533        C  0.73352661  0.06708459  0.68709151     0.01100
C534        C  0.73114435  0.09290947  0.67762110     0.07200
C535        C  0.72214134  0.08861092  0.65531485    -0.05900
H536        H  0.73926402  0.06202556  0.70456704     0.07800
H537        H  0.71794517  0.10394553  0.64240686     0.09000
Cu538      Cu  0.72485316  0.00649284  0.67466235     0.44200
Cu539      Cu  0.70876146  0.04224588  0.62167027     0.42000
Cu540      Cu  0.69951371  0.97015349  0.62416782     0.43900
N541        N  0.71726255  0.96477780  0.67384355    -0.34600
N542        N  0.70661233  0.95214639  0.65584732    -0.28900
C543        C  0.70406886  0.92550208  0.66060635    -0.05000
C544        C  0.71431376  0.92064229  0.68253710     0.07300
C545        C  0.72214818  0.94628288  0.69044524     0.01100
H546        H  0.69556101  0.91111264  0.64855899     0.08700
H547        H  0.73162394  0.95105659  0.70680648     0.07800
N548        N  0.70026522  0.99157469  0.59347307    -0.36000
N549        N  0.70345593  0.01828887  0.59275376    -0.28200
C550        C  0.70489537  0.02629319  0.57069694    -0.03500
C551        C  0.70238930  0.00351130  0.55672116     0.05100
C552        C  0.69970174  0.98178083  0.57179096     0.03200
H553        H  0.70871430  0.04705570  0.56534243     0.08300
H554        H  0.69788644  0.96041565  0.56735707     0.07200
N555        N  0.73186710  0.27511405  0.78059765    -0.36500
N556        N  0.72400267  0.22516093  0.75442623    -0.57100
N557        N  0.77770201  0.23273898  0.73332150    -0.36500
N558        N  0.78418818  0.28413490  0.75762134    -0.57100
C559        C  0.70566455  0.26937801  0.78617727     0.27100
C560        C  0.73688434  0.30112836  0.78719445     0.27100
C561        C  0.76781565  0.21213978  0.72021954     0.27100
C562        C  0.80000804  0.24269032  0.72246919     0.27100
C563        C  0.70272107  0.22271679  0.76909241     0.35700
C564        C  0.72631317  0.20099654  0.74336865     0.35700
C565        C  0.78488444  0.30513990  0.77274732     0.35700
C566        C  0.80942744  0.28229875  0.74828865     0.35700
C567        C  0.69398314  0.29190391  0.79677029    -0.21800
C568        C  0.71363760  0.31191796  0.79739735    -0.21800
C569        C  0.78421455  0.20876850  0.70094338    -0.21800
C570        C  0.80456169  0.22797891  0.70240006    -0.21800
C571        C  0.69120777  0.19699950  0.76709900    -0.22900
C572        C  0.70616379  0.18323006  0.75080481    -0.22900
C573        C  0.81058905  0.31697641  0.77272149    -0.22900
C574        C  0.82615401  0.30242852  0.75732904    -0.22900
C575        C  0.69251160  0.24388211  0.78325914    -0.18200
C576        C  0.76230776  0.31483493  0.78563407    -0.18200
C577        C  0.81710363  0.26387426  0.73063476    -0.18200
C578        C  0.74545500  0.19514899  0.72581889    -0.18200
H579        H  0.67350700  0.29367511  0.80359712     0.14700
H580        H  0.71115257  0.33199712  0.80488379     0.14700
H581        H  0.78192255  0.19382939  0.68732016     0.14700
H582        H  0.82090048  0.23073726  0.69008490     0.14700
H583        H  0.67370323  0.18906634  0.77625810     0.13000
H584        H  0.70251324  0.16255462  0.74500391     0.13000
H585        H  0.81741278  0.33440082  0.78264171     0.13000
H586        H  0.84724715  0.30649003  0.75301061     0.13000
H587        H  0.74633546  0.26114135  0.77507862     0.26200
H588        H  0.77149050  0.23757511  0.74991172     0.26200
N589        N  0.71927901  0.73646205  0.23117298    -0.36500
N590        N  0.71156332  0.78903503  0.25323156    -0.57100
N591        N  0.76558283  0.78416953  0.27407064    -0.36500
N592        N  0.77218941  0.73062509  0.25348660    -0.57100
C593        C  0.69254888  0.74077748  0.22660667     0.27100
C594        C  0.72454069  0.70991336  0.22666318     0.27100
C595        C  0.75602151  0.80652840  0.28512745     0.27100
C596        C  0.78782389  0.77538350  0.28578925     0.27100
C597        C  0.68958933  0.78929519  0.23916098     0.35700
C598        C  0.71407006  0.81458671  0.26168088     0.35700
C599        C  0.77306404  0.70842245  0.23967824     0.35700
C600        C  0.79730842  0.73324341  0.26287515     0.35700
C601        C  0.68070264  0.71671641  0.21898073    -0.21800
C602        C  0.70091273  0.69724594  0.21895300    -0.21800
C603        C  0.77260868  0.81231726  0.30386508    -0.21800
C604        C  0.79276164  0.79285994  0.30417761    -0.21800
C605        C  0.67789407  0.81504810  0.23888240    -0.22900
C606        C  0.69338741  0.83106871  0.25319958    -0.22900
C607        C  0.79878380  0.69669651  0.24043789    -0.22900
C608        C  0.81408871  0.71229545  0.25522414    -0.22900
C609        C  0.67902007  0.76623733  0.22758542    -0.18200
C610        C  0.75044877  0.69728177  0.22784223    -0.18200
C611        C  0.80463209  0.75295232  0.27963454    -0.18200
C612        C  0.73371426  0.82285827  0.27806711    -0.18200
H613        H  0.65974841  0.71360107  0.21366966     0.14700
H614        H  0.69851287  0.67623186  0.21358530     0.14700
H615        H  0.77066776  0.82908467  0.31591407     0.14700
H616        H  0.80933196  0.79204342  0.31647723     0.14700
H617        H  0.65992783  0.82157740  0.22953176     0.13000
H618        H  0.68972468  0.85236769  0.25704861     0.13000
H619        H  0.80563669  0.67841108  0.23170260     0.13000
H620        H  0.83501816  0.70822846  0.26006727     0.13000
H621        H  0.73377386  0.75142560  0.23429000     0.26200
H622        H  0.75910515  0.77723874  0.25809604     0.26200
N623        N  0.73147188  0.73540888  0.78334713    -0.36500
N624        N  0.72010429  0.78752442  0.76096362    -0.57100
N625        N  0.77030279  0.78228219  0.73485028    -0.36500
N626        N  0.78314081  0.73162365  0.75921701    -0.57100
C627        C  0.71010332  0.74417071  0.79610250     0.27100
C628        C  0.74301723  0.71432238  0.79476221     0.27100
C629        C  0.76304765  0.80809891  0.72921021     0.27100
C630        C  0.79667866  0.77882689  0.72853862     0.27100
C631        C  0.69602279  0.78368529  0.77177303     0.35700
C632        C  0.71619063  0.80817257  0.74592685     0.35700
C633        C  0.78321585  0.70674699  0.76925542     0.35700
C634        C  0.80409584  0.73179141  0.74409589     0.35700
C635        C  0.70790544  0.72834222  0.81578978    -0.21800
C636        C  0.72865565  0.70946059  0.81492235    -0.21800
C637        C  0.78498741  0.82104403  0.71885598    -0.21800
C638        C  0.80611695  0.80257005  0.71832135    -0.21800
C639        C  0.67682843  0.80219531  0.76378953    -0.22900
C640        C  0.68956524  0.81761572  0.74733510    -0.22900
C641        C  0.80455517  0.69117305  0.76073070    -0.22900
C642        C  0.81786766  0.70706871  0.74488855    -0.22900
C643        C  0.69146512  0.76485437  0.78974347    -0.18200
C644        C  0.76520542  0.69837286  0.78689480    -0.18200
C645        C  0.81204807  0.75442950  0.73057392    -0.18200
C646        C  0.73683702  0.81994902  0.73216533    -0.18200
H647        H  0.69271749  0.73000840  0.82925228     0.14700
H648        H  0.73260193  0.69380490  0.82762107     0.14700
H649        H  0.78570191  0.84165131  0.71223999     0.14700
H650        H  0.82613911  0.80624870  0.71112138     0.14700
H651        H  0.65586932  0.80449893  0.76934700     0.13000
H652        H  0.68034010  0.83413281  0.73774360     0.13000
H653        H  0.81018191  0.67063371  0.76562300     0.13000
H654        H  0.83580334  0.70112999  0.73522930     0.13000
H655        H  0.73581462  0.74126758  0.76657655     0.26200
H656        H  0.75722285  0.76700013  0.74035007     0.26200
C657        C  0.71874863  0.14163878  0.68405197    -0.26200
C658        C  0.73589749  0.11944699  0.68913761    -0.14300
C659        C  0.75701243  0.12280849  0.70542170     0.36300
C660        C  0.75985813  0.14769169  0.71705833    -0.25700
C661        C  0.74214021  0.16944655  0.71256384    -0.14900
C662        C  0.72168741  0.16667830  0.69564466     0.37400
N663        N  0.70385952  0.18918472  0.69059402    -0.89200
H664        H  0.70263483  0.13925894  0.67141362     0.18500
H665        H  0.77594230  0.15005710  0.72974153     0.18500
N666        N  0.77602590  0.10124509  0.70982105    -0.88200
H667        H  0.68979332  0.18376586  0.67782294     0.35900
H668        H  0.71580691  0.20485847  0.68375273     0.41000
H669        H  0.77519610  0.09658013  0.72737727     0.40600
H670        H  0.79563016  0.10844229  0.70616272     0.35500
C671        C  0.71874206  0.89426324  0.71901446    -0.26200
C672        C  0.71830769  0.89412929  0.69475808    -0.14300
C673        C  0.72396831  0.86918464  0.68316697     0.36300
C674        C  0.72982606  0.84569642  0.69585574    -0.25700
C675        C  0.73065272  0.84604473  0.71996620    -0.14900
C676        C  0.72515060  0.87080809  0.73173184     0.37400
N677        N  0.72673898  0.87327349  0.75639542    -0.89200
H678        H  0.71457050  0.91297349  0.72832999     0.18500
H679        H  0.73399719  0.82683476  0.68672524     0.18500
N680        N  0.72496916  0.86684026  0.65860987    -0.88200
H681        H  0.70701202  0.87689760  0.76254306     0.35900
H682        H  0.73376193  0.85542611  0.76414327     0.41000
H683        H  0.73787519  0.88185226  0.65196063     0.40600
H684        H  0.70525882  0.86874130  0.65201015     0.35500
C685        C  0.70889491  0.85211571  0.30581956    -0.26200
C686        C  0.72991056  0.84965723  0.28958097    -0.14300
C687        C  0.74740928  0.87208627  0.28540597     0.36300
C688        C  0.74366292  0.89623797  0.29795975    -0.25700
C689        C  0.72297710  0.89845467  0.31455441    -0.14900
C690        C  0.70511451  0.87636627  0.31825849     0.37400
N691        N  0.68299743  0.87879339  0.33439624    -0.89200
H692        H  0.69549306  0.83491432  0.30884471     0.18500
H693        H  0.75728114  0.91327751  0.29496655     0.18500
N694        N  0.76890217  0.87121187  0.26855425    -0.88200
H695        H  0.67177276  0.86068371  0.33507338     0.35900
H696        H  0.66973801  0.89381127  0.32820317     0.41000
H697        H  0.76896863  0.85292524  0.25933004     0.40600
H698        H  0.78747574  0.87233488  0.27738841     0.35500
C699        C  0.69648021  0.02316677  0.49370930    -0.26200
C700        C  0.70995456  0.00147319  0.48275711    -0.14300
C701        C  0.72025906  0.97987522  0.49626842     0.36300
C702        C  0.71717957  0.98058210  0.52034529    -0.25700
C703        C  0.70411345  0.00260328  0.53125220    -0.14900
C704        C  0.69330590  0.02381788  0.51766980     0.37400
N705        N  0.67833759  0.04572901  0.52803623    -0.89200
H706        H  0.68787853  0.03962040  0.48360283     0.18500
H707        H  0.72568570  0.96416808  0.53056228     0.18500
N708        N  0.73464471  0.95766260  0.48578265    -0.88200
H709        H  0.65871816  0.04591197  0.52093648     0.35900
H710        H  0.68792455  0.06404541  0.52365810     0.41000
H711        H  0.72457820  0.93958236  0.49009214     0.40600
H712        H  0.75425240  0.95690285  0.49287910     0.35500
C713        C  0.78074405  0.36951113  0.82981987    -0.26200
C714        C  0.77137069  0.39328054  0.81878454    -0.14300
C715        C  0.75807537  0.39083284  0.79723960     0.36300
C716        C  0.75562819  0.36501672  0.78684205    -0.25700
C717        C  0.76526507  0.34145125  0.79779342    -0.14900
C718        C  0.77769642  0.34366734  0.81973202     0.37400
N719        N  0.78723225  0.32028553  0.83233514    -0.89200
H720        H  0.79071361  0.37095150  0.84644651     0.18500
H721        H  0.74577015  0.36312423  0.77019018     0.18500
N722        N  0.74638665  0.41434132  0.78625632    -0.88200
H723        H  0.80844336  0.32188629  0.83377663     0.35900
H724        H  0.78323659  0.30208526  0.82362206     0.41000
H725        H  0.73058479  0.42141738  0.79679323     0.40600
H726        H  0.73746308  0.40900741  0.77050684     0.35500
C727        C  0.75778939  0.62377327  0.80341073    -0.26200
C728        C  0.77810804  0.62097839  0.82032006    -0.14300
C729        C  0.79458588  0.64381792  0.82592197     0.36300
C730        C  0.79045945  0.66862425  0.81453202    -0.25700
C731        C  0.76982705  0.67143161  0.79798478    -0.14900
C732        C  0.75327608  0.64888334  0.79237710     0.37400
N733        N  0.73174088  0.65176931  0.77572192    -0.89200
H734        H  0.74502783  0.60643840  0.79914114     0.18500
H735        H  0.80319099  0.68597963  0.81882499     0.18500
N736        N  0.81610953  0.64234974  0.84259403    -0.88200
H737        H  0.72116469  0.63339518  0.77376172     0.35900
H738        H  0.74076815  0.65600951  0.75981287     0.41000
H739        H  0.82897011  0.62609528  0.83831648     0.40600
H740        H  0.80768580  0.63894387  0.85883132     0.35500
C741        C  0.76674750  0.64347317  0.18296360    -0.26200
C742        C  0.76013095  0.61919736  0.19462347    -0.14300
C743        C  0.74980348  0.62094853  0.21741483     0.36300
C744        C  0.74750144  0.64660201  0.22811808    -0.25700
C745        C  0.75397683  0.67053002  0.21624508    -0.14900
C746        C  0.76335285  0.66908133  0.19340877     0.37400
N747        N  0.76892704  0.69368693  0.18082769    -0.89200
H748        H  0.77466746  0.64263066  0.16558609     0.18500
H749        H  0.73987907  0.64809661  0.24559969     0.18500
N750        N  0.74075606  0.59700434  0.22939906    -0.88200
H751        H  0.77500274  0.68914720  0.16398401     0.35900
H752        H  0.78546469  0.70337021  0.18875372     0.41000
H753        H  0.72375416  0.58942368  0.22056574     0.40600
H754        H  0.73407591  0.60192325  0.24600234     0.35500
C755        C  0.75871469  0.52640590  0.99279059    -0.26200
C756        C  0.77366638  0.50608661  0.98133695    -0.14300
C757        C  0.78726226  0.48599475  0.99434956     0.36300
C758        C  0.78610101  0.48682832  0.01845795    -0.25700
C759        C  0.77140923  0.50730209  0.02997851    -0.14900
C760        C  0.75709303  0.52690959  0.01692778     0.37400
N761        N  0.74004036  0.54670418  0.02800121    -0.89200
H762        H  0.74770890  0.54163061  0.98295355     0.18500
H763        H  0.79721146  0.47159528  0.02818693     0.18500
N764        N  0.80300538  0.46517418  0.98322531    -0.88200
H765        H  0.72013247  0.54417560  0.02185582     0.35900
H766        H  0.74674243  0.56610406  0.02316057     0.41000
H767        H  0.79522360  0.44623890  0.98822761     0.40600
H768        H  0.82311352  0.46655992  0.98915492     0.35500
C769        C  0.77611745  0.34752624  0.20039229    -0.26200
C770        C  0.75515848  0.34491773  0.21666933    -0.14300
C771        C  0.73746600  0.36724187  0.22090211     0.36300
C772        C  0.74167693  0.39176008  0.20907901    -0.25700
C773        C  0.76255233  0.39428095  0.19270968    -0.14900
C774        C  0.77982055  0.37193541  0.18827852     0.37400
N775        N  0.80155812  0.37418056  0.17191563    -0.89200
H776        H  0.78960613  0.33044534  0.19703531     0.18500
H777        H  0.72822862  0.40886946  0.21245206     0.18500
N778        N  0.71532957  0.36596006  0.23712862    -0.88200
H779        H  0.79877090  0.35912045  0.15935323     0.35900
H780        H  0.81992661  0.37016657  0.18045018     0.41000
H781        H  0.71448382  0.34719308  0.24552576     0.40600
H782        H  0.69713534  0.36793431  0.22784726     0.35500
C783        C  0.73587407  0.12152603  0.30113877    -0.26200
C784        C  0.72252164  0.12215323  0.32259901    -0.14300
C785        C  0.71231083  0.14747071  0.33077477     0.36300
C786        C  0.71632573  0.17113971  0.31778752    -0.25700
C787        C  0.72987076  0.17036150  0.29654533    -0.14900
C788        C  0.73927488  0.14508694  0.28785525     0.37400
N789        N  0.75242082  0.14249543  0.26579870    -0.89200
H790        H  0.74381966  0.10247031  0.29445819     0.18500
H791        H  0.70863139  0.19041589  0.32427531     0.18500
N792        N  0.69690169  0.14989588  0.35162030    -0.88200
H793        H  0.74024348  0.12981979  0.25556156     0.35900
H794        H  0.75353882  0.16113379  0.25722099     0.41000
H795        H  0.70976546  0.14648033  0.36563541     0.40600
H796        H  0.68113550  0.13554129  0.35144328     0.35500
C797        C  0.24974377  0.12943672  0.70786367    -0.26200
C798        C  0.26907284  0.14955967  0.70256417    -0.14300
C799        C  0.28903472  0.14427585  0.68549905     0.36300
C800        C  0.28952678  0.11870278  0.67468696    -0.25700
C801        C  0.27041382  0.09844778  0.68020523    -0.14900
C802        C  0.25009713  0.10407448  0.69680443     0.37400
N803        N  0.22885953  0.08499336  0.70199351    -0.89200
H804        H  0.23406633  0.13363855  0.72055488     0.18500
H805        H  0.30492176  0.11467072  0.66171237     0.18500
N806        N  0.30881977  0.16428398  0.67851558    -0.88200
H807        H  0.23759529  0.06744744  0.70899528     0.35900
H808        H  0.21887002  0.07982375  0.68666697     0.41000
H809        H  0.30638580  0.18267766  0.68733635     0.35800
H810        H  0.30532580  0.16857147  0.66111815     0.35500
C811        C  0.24891397  0.10507069  0.29102242    -0.26200
C812        C  0.27244478  0.10373845  0.30479070    -0.14300
C813        C  0.28890270  0.12714282  0.30758017     0.36300
C814        C  0.28119387  0.15148131  0.29703685    -0.25700
C815        C  0.25756183  0.15287418  0.28347199    -0.14900
C816        C  0.24131552  0.12950706  0.28023910     0.37400
N817        N  0.21731919  0.13076936  0.26600792    -0.89200
H818        H  0.23636973  0.08705045  0.28882627     0.18500
H819        H  0.29393518  0.16938987  0.29910138     0.18500
N820        N  0.31409666  0.12650751  0.32011837    -0.88200
H821        H  0.20753884  0.11180600  0.26554017     0.35900
H822        H  0.22363372  0.13488601  0.24918370     0.41000
H823        H  0.32641530  0.11113699  0.31318181     0.40600
H824        H  0.31004332  0.12196788  0.33733707     0.35500
C825        C  0.29652102  0.00990273  0.47739216    -0.26200
C826        C  0.28159129  0.98974068  0.46565058    -0.14300
C827        C  0.26708017  0.97001996  0.47846776     0.36300
C828        C  0.26845979  0.97054183  0.50263879    -0.25700
C829        C  0.28334500  0.99073282  0.51429678    -0.14900
C830        C  0.29761376  0.01058807  0.50155932     0.37400
N831        N  0.31371146  0.03093646  0.51314929    -0.89200
H832        H  0.30790824  0.02490313  0.46767987     0.18500
H833        H  0.25726505  0.95549344  0.51247774     0.18500
N834        N  0.25042409  0.95000592  0.46703499    -0.88200
H835        H  0.32282124  0.04407411  0.50125699     0.35900
H836        H  0.32960247  0.02088868  0.52167112     0.41000
H837        H  0.23456779  0.96037713  0.45874676     0.40600
H838        H  0.24128213  0.93697011  0.47898999     0.35500
C839        C  0.15020711  0.23927253  0.71442661    -0.26200
C840        C  0.17296275  0.25306529  0.70575887    -0.14300
C841        C  0.17007937  0.27055066  0.68673139     0.36300
C842        C  0.14416257  0.27420102  0.67682247    -0.25700
C843        C  0.12107750  0.26078763  0.68565860    -0.14900
C844        C  0.12427156  0.24275372  0.70450403     0.37400
N845        N  0.10143192  0.22755873  0.71319468    -0.89200
H846        H  0.15280941  0.22560839  0.72892033     0.18500
H847        H  0.14193394  0.28796662  0.66237418     0.18500
N848        N  0.19354793  0.28423731  0.67744867    -0.88200
H849        H  0.10728783  0.21545575  0.72716791     0.35900
H850        H  0.09512221  0.21419508  0.70017881     0.41000
H851        H  0.20068804  0.29780871  0.68999265     0.40600
H852        H  0.18805291  0.29600990  0.66317533     0.35500
C853        C  0.87416176  0.28837906  0.69130539    -0.26200
C854        C  0.89575641  0.27094363  0.69751565    -0.14300
C855        C  0.89118853  0.25117917  0.71491253     0.36300
C856        C  0.86563051  0.24960552  0.72565481    -0.25700
C857        C  0.84430736  0.26722451  0.71951357    -0.14900
C858        C  0.84850834  0.28669624  0.70207487     0.37400
N859        N  0.82641176  0.30396410  0.69480684    -0.89200
H860        H  0.87726819  0.30335051  0.67786108     0.18500
H861        H  0.86221343  0.23421201  0.73871395     0.18500
N862        N  0.91143979  0.23152548  0.72129780    -0.88200
H863        H  0.83257465  0.31650492  0.68123069     0.35900
H864        H  0.82155054  0.31691023  0.70853147     0.41000
H865        H  0.92765781  0.24155365  0.72929196     0.40600
H866        H  0.91837177  0.22159154  0.70645807     0.35500
C867        C  0.10665263  0.23918333  0.30069420    -0.26200
C868        C  0.10554034  0.26048377  0.31694992    -0.14300
C869        C  0.12909331  0.27650046  0.32074045     0.36300
C870        C  0.15292686  0.27131080  0.30812537    -0.25700
C871        C  0.15382247  0.25034101  0.29175079    -0.14900
C872        C  0.13071833  0.23383106  0.28829755     0.37400
N873        N  0.13165834  0.21180056  0.27207794    -0.89200
H874        H  0.08888694  0.22649788  0.29773537     0.18500
H875        H  0.17072166  0.28405535  0.31080918     0.18500
N876        N  0.12868729  0.29874643  0.33675273    -0.88200
H877        H  0.12721899  0.19376246  0.28088781     0.35900
H878        H  0.11634893  0.21496186  0.25981286     0.41000
H879        H  0.13352860  0.31660234  0.32783284     0.40600
H880        H  0.14392872  0.29534529  0.34904022     0.35500
C881        C  0.83117639  0.26834898  0.31991064    -0.26200
C882        C  0.83132810  0.26944494  0.29578161    -0.14300
C883        C  0.85634935  0.27399302  0.28422942     0.36300
C884        C  0.88022390  0.27789937  0.29715652    -0.25700
C885        C  0.88024999  0.27678038  0.32141151    -0.14900
C886        C  0.85508969  0.27178078  0.33279832     0.37400
N887        N  0.85292224  0.26918339  0.35727590    -0.89200
H888        H  0.81212399  0.26469860  0.32887575     0.18500
H889        H  0.89905933  0.28160896  0.28793785     0.18500
N890        N  0.85860373  0.27396312  0.25952158    -0.88200
H891        H  0.85603210  0.28823801  0.36483569     0.35900
H892        H  0.86740279  0.25513312  0.36312110     0.41000
H893        H  0.84024253  0.26887400  0.25149558     0.40600
H894        H  0.86364013  0.29375184  0.25438178     0.35500
C895        C  0.97954154  0.28473764  0.49098761    -0.26200
C896        C  0.99976960  0.30059682  0.48033439    -0.14300
C897        C  0.01892515  0.31439532  0.49441677     0.36300
C898        C  0.01770406  0.31162149  0.51842894    -0.25700
C899        C  0.99765495  0.29552688  0.52912262    -0.14900
C900        C  0.97820121  0.28206633  0.51500235     0.37400
N901        N  0.95741513  0.26476254  0.52425357    -0.89200
H902        H  0.96471773  0.27395684  0.48051278     0.18500
H903        H  0.03259699  0.32235463  0.52886470     0.18500
N904        N  0.03924570  0.33215371  0.48502901    -0.88200
H905        H  0.94360815  0.27666577  0.53354943     0.35900
H906        H  0.96645085  0.25035847  0.53509843     0.41000
H907        H  0.02963492  0.34655709  0.47452845     0.40600
H908        H  0.05284201  0.32069154  0.47514504     0.35500
C909        C  0.25581891  0.35243014  0.81863390    -0.26200
C910        C  0.25231235  0.37677440  0.80612803    -0.14300
C911        C  0.24907947  0.37502541  0.78183415     0.36300
C912        C  0.25041919  0.34939630  0.77087550    -0.25700
C913        C  0.25398531  0.32537115  0.78354546    -0.14900
C914        C  0.25629843  0.32698626  0.80773900     0.37400
N915        N  0.25846440  0.30305899  0.82176670    -0.89200
H916        H  0.25831147  0.35292479  0.83714791     0.18500
H917        H  0.24836726  0.34804773  0.75231200     0.18500
N918        N  0.24383986  0.39895242  0.76829838    -0.88200
H919        H  0.27632030  0.29259529  0.81750238     0.35900
H920        H  0.24176637  0.29045266  0.81823498     0.41000
H921        H  0.22461650  0.40633725  0.77303478     0.40600
H922        H  0.24262084  0.39408905  0.75077669     0.35500
C923        C  0.22485189  0.37782259  0.20672680    -0.26200
C924        C  0.21636158  0.37747738  0.18359045    -0.14300
C925        C  0.20844988  0.35243774  0.17346517     0.36300
C926        C  0.21077762  0.32823950  0.18627418    -0.25700
C927        C  0.22035791  0.32860937  0.20903213    -0.14900
C928        C  0.22702492  0.35376882  0.21955564     0.37400
N929        N  0.23660127  0.35567336  0.24294281    -0.89200
H930        H  0.23084868  0.39685115  0.21477288     0.18500
H931        H  0.20552829  0.30887848  0.17839007     0.18500
N932        N  0.19801820  0.35162409  0.15031835    -0.88200
H933        H  0.25676872  0.36260106  0.24245391     0.35900
H934        H  0.23692151  0.33672289  0.25107949     0.41000
H935        H  0.17966975  0.36252071  0.15013636     0.40600
H936        H  0.19328897  0.33161728  0.14548700     0.35500
C937        C  0.26196292  0.47448673  0.98257365    -0.26200
C938        C  0.24130360  0.48929263  0.97140461    -0.14300
C939        C  0.22169768  0.50334474  0.98481294     0.36300
C940        C  0.22322476  0.50234770  0.00885321    -0.25700
C941        C  0.24392658  0.48764975  0.02002090    -0.14900
C942        C  0.26363406  0.47374018  0.00666132     0.37400
N943        N  0.28614554  0.45968524  0.01700665    -0.89200
H944        H  0.27721779  0.46380543  0.97248224     0.18500
H945        H  0.20791030  0.51297936  0.01892219     0.18500
N946        N  0.19945134  0.51795851  0.97460604    -0.88200
H947        H  0.27862488  0.44377755  0.02708509     0.35900
H948        H  0.29664031  0.47336383  0.02764570     0.41000
H949        H  0.18897060  0.50483470  0.96347744     0.40600
H950        H  0.20718832  0.53431606  0.96518861     0.35500
C951        C  0.39472300  0.21136308  0.79000017    -0.26200
C952        C  0.39267081  0.21479965  0.81406880    -0.14300
C953        C  0.36661106  0.22082165  0.82357946     0.36300
C954        C  0.34400999  0.22354903  0.80905240    -0.25700
C955        C  0.34637524  0.22049509  0.78514461    -0.14900
C956        C  0.37198541  0.21450198  0.77545621     0.37400
N957        N  0.37485409  0.21207997  0.75088890    -0.89200
H958        H  0.41425729  0.20647854  0.78233992     0.18500
H959        H  0.32430744  0.22843982  0.81649699     0.18500
N960        N  0.36220912  0.22518013  0.84767318    -0.88200
H961        H  0.39504556  0.20753302  0.74650180     0.35900
H962        H  0.37048114  0.23113517  0.74372023     0.41000
H963        H  0.37612222  0.23964358  0.85378051     0.40600
H964        H  0.36451482  0.20668225  0.85629986     0.35500
C965        C  0.61701212  0.24198467  0.79843364    -0.26200
C966        C  0.61747250  0.23046709  0.82067602    -0.14300
C967        C  0.64305463  0.22320913  0.83028251     0.36300
C968        C  0.66715114  0.22780377  0.81779742    -0.25700
C969        C  0.66641264  0.23919680  0.79572736    -0.14900
C970        C  0.64115439  0.24622237  0.78583968     0.37400
N971        N  0.64021791  0.25805609  0.76321197    -0.89200
H972        H  0.59780377  0.24802109  0.79078826     0.18500
H973        H  0.68662610  0.22225865  0.82533286     0.18500
N974        N  0.64488362  0.21063816  0.85245472    -0.88200
H975        H  0.62009207  0.26250750  0.75852951     0.35900
H976        H  0.64721205  0.24336377  0.75154294     0.41000
H977        H  0.65718623  0.22289465  0.86294884     0.40600
H978        H  0.65455712  0.19176014  0.85050394     0.35500
C979        C  0.35642899  0.22779237  0.17417224    -0.26200
C980        C  0.37992807  0.22848431  0.18825686    -0.14300
C981        C  0.37646560  0.23260935  0.21232715     0.36300
C982        C  0.35005659  0.23598167  0.22138052    -0.25700
C983        C  0.32698894  0.23470296  0.20720622    -0.14900
C984        C  0.33023131  0.23058926  0.18338388     0.37400
N985        N  0.30720004  0.22863242  0.16823857    -0.89200
H986        H  0.35812794  0.22501210  0.15575094     0.18500
H987        H  0.34730433  0.23886548  0.23975465     0.18500
N988        N  0.39941546  0.23264343  0.22772672    -0.88200
H989        H  0.29609675  0.24679425  0.16926963     0.35900
H990        H  0.29474804  0.21269559  0.17391275     0.41000
H991        H  0.40734744  0.21284340  0.22794583     0.40600
H992        H  0.39330249  0.23699502  0.24459717     0.35500
C993        C  0.60972151  0.25766885  0.20477612    -0.26200
C994        C  0.60708526  0.23465734  0.19048243    -0.14300
C995        C  0.62906766  0.21593971  0.18903186     0.36300
C996        C  0.65312653  0.22098467  0.20128789    -0.25700
C997        C  0.65583667  0.24414069  0.21528950    -0.14900
C998        C  0.63387531  0.26262433  0.21722357     0.37400
N999        N  0.63581805  0.28575243  0.23241736    -0.89200
H1000       H  0.59284604  0.27186607  0.20620949     0.18500
H1001       H  0.66982348  0.20653334  0.20009743     0.18500
N1002       N  0.62718822  0.19096558  0.17628789    -0.88200
H1003       H  0.61740294  0.29654208  0.23267406     0.35900
H1004       H  0.65038609  0.29907165  0.22569534     0.41000
H1005       H  0.62562095  0.19539205  0.15877559     0.40600
H1006       H  0.60977062  0.18041945  0.18162197     0.35500
C1007       C  0.48139093  0.17936668  0.01677385    -0.26200
C1008       C  0.49709665  0.19808014  0.02940869    -0.14300
C1009       C  0.51305375  0.21748863  0.01757197     0.36300
C1010       C  0.51387672  0.21701546  0.99338900    -0.25700
C1011       C  0.49842129  0.19815084  0.98069824    -0.14900
C1012       C  0.48191405  0.17925047  0.99255307     0.37400
N1013       N  0.46626285  0.15941731  0.98012896    -0.89200
H1014       H  0.46898867  0.16449487  0.02574384     0.18500
H1015       H  0.52612625  0.23196187  0.98437684     0.18500
N1016       N  0.52769912  0.23814717  0.03011637    -0.88200
H1017       H  0.44576266  0.16184491  0.98468592     0.35900
H1018       H  0.47251348  0.14002894  0.98544094     0.41000
H1019       H  0.51328976  0.25038331  0.03849016     0.40600
H1020       H  0.53832910  0.25090773  0.01884461     0.35500
C1021       C  0.28557251  0.82521113  0.68102923    -0.26200
C1022       C  0.26537924  0.82382078  0.69805874    -0.14300
C1023       C  0.24978905  0.84716207  0.70329701     0.36300
C1024       C  0.25473262  0.87153282  0.69128873    -0.25700
C1025       C  0.27491886  0.87305102  0.67412959    -0.14900
C1026       C  0.29056669  0.84945381  0.66907418     0.37400
N1027       N  0.31257327  0.84969757  0.65285721    -0.89200
H1028       H  0.29790883  0.80737558  0.67732678     0.18500
H1029       H  0.24273698  0.88947011  0.69536910     0.18500
N1030       N  0.22972086  0.84625464  0.72133547    -0.88200
H1031       H  0.32584823  0.86564787  0.65704241     0.35900
H1032       H  0.30471909  0.85271585  0.63635947     0.41000
H1033       H  0.21415182  0.83310592  0.71602395     0.40600
H1034       H  0.22071242  0.86541249  0.72359169     0.35500
C1035       C  0.24391344  0.62842185  0.77171672    -0.26200
C1036       C  0.24456751  0.65256682  0.78459241    -0.14300
C1037       C  0.24216658  0.65134028  0.80881302     0.36300
C1038       C  0.24077204  0.62584897  0.81957799    -0.25700
C1039       C  0.24091423  0.60132775  0.80684701    -0.14900
C1040       C  0.24134904  0.60289628  0.78242814     0.37400
N1041       N  0.23858334  0.57886835  0.76842982    -0.89200
H1042       H  0.24500720  0.62961445  0.75309101     0.18500
H1043       H  0.23982776  0.62551904  0.83818128     0.18500
N1044       N  0.24067590  0.67538120  0.82301274    -0.88200
H1045       H  0.23979514  0.58365733  0.75091161     0.35900
H1046       H  0.21898139  0.57111171  0.77117716     0.41000
H1047       H  0.24069897  0.69322905  0.81326261     0.40600
H1048       H  0.25815879  0.67583744  0.83334753     0.35500
C1049       C  0.13200949  0.70919261  0.67868678    -0.26200
C1050       C  0.11142508  0.72635777  0.68725442    -0.14300
C1051       C  0.11678186  0.74282554  0.70673111     0.36300
C1052       C  0.14286851  0.74235699  0.71674969    -0.25700
C1053       C  0.16359632  0.72575211  0.70780268    -0.14900
C1054       C  0.15790720  0.70828593  0.68895641     0.37400
N1055       N  0.17788318  0.68987827  0.67953995    -0.89200
H1056       H  0.12788364  0.69624592  0.66392896     0.18500
H1057       H  0.14736429  0.75556752  0.73126218     0.18500
N1058       N  0.09610198  0.76069615  0.71575236    -0.88200
H1059       H  0.17051046  0.67004909  0.68177645     0.35900
H1060       H  0.19633836  0.69089413  0.68847940     0.41000
H1061       H  0.09198753  0.77540766  0.70320219     0.40600
H1062       H  0.10331355  0.77118552  0.73023247     0.35500
C1063       C  0.88697112  0.75998208  0.71389712    -0.26200
C1064       C  0.88715281  0.74609801  0.69267948    -0.14300
C1065       C  0.86256019  0.73507048  0.68409900     0.36300
C1066       C  0.83832947  0.73832884  0.69659544    -0.25700
C1067       C  0.83813644  0.75230968  0.71764179    -0.14900
C1068       C  0.86260444  0.76330630  0.72644053     0.37400
N1069       N  0.86243145  0.77814269  0.74782642    -0.89200
H1070       H  0.90576901  0.76861758  0.72050705     0.18500
H1071       H  0.81956097  0.72961424  0.68997531     0.18500
N1072       N  0.86219148  0.71983265  0.66302469    -0.88200
H1073       H  0.88199320  0.78531677  0.75171990     0.35900
H1074       H  0.85714395  0.76448019  0.76088517     0.41000
H1075       H  0.84846483  0.72926936  0.65176921     0.40600
H1076       H  0.85485875  0.70026981  0.66658816     0.35500
C1077       C  0.85770676  0.73816167  0.32592184    -0.26200
C1078       C  0.88219477  0.74303005  0.31399894    -0.14300
C1079       C  0.88091756  0.75120973  0.29068110     0.36300
C1080       C  0.85549237  0.75454434  0.27992956    -0.25700
C1081       C  0.83116841  0.74948596  0.29183529    -0.14900
C1082       C  0.83223980  0.74103096  0.31502124     0.37400
N1083       N  0.80742035  0.73584131  0.32745764    -0.89200
H1084       H  0.85839216  0.73172294  0.34374889     0.18500
H1085       H  0.85469685  0.76109186  0.26211299     0.18500
N1086       N  0.90524335  0.75694250  0.27794468    -0.88200
H1087       H  0.81168720  0.73025252  0.34445943     0.35900
H1088       H  0.79783467  0.71913256  0.31970422     0.41000
H1089       H  0.90423364  0.77711015  0.27218841     0.40600
H1090       H  0.90559654  0.74417473  0.26349181     0.35500
C1091       C  0.97618939  0.72834106  0.48774325    -0.26200
C1092       C  0.99638475  0.74412110  0.47701520    -0.14300
C1093       C  0.01506015  0.75880907  0.49086086     0.36300
C1094       C  0.01372609  0.75664425  0.51487939    -0.25700
C1095       C  0.99372568  0.74062528  0.52565708    -0.14900
C1096       C  0.97465566  0.72638244  0.51177201     0.37400
N1097       N  0.95428254  0.70885003  0.52138215    -0.89200
H1098       H  0.96172229  0.71699564  0.47733181     0.18500
H1099       H  0.02825230  0.76795683  0.52525213     0.18500
N1100       N  0.03476534  0.77702574  0.48115357    -0.88200
H1101       H  0.94056381  0.72057953  0.53091632     0.35900
H1102       H  0.96380262  0.69475572  0.53223572     0.41000
H1103       H  0.02455908  0.79106359  0.47069025     0.40600
H1104       H  0.04843931  0.76588211  0.47108594     0.35500
C1105       C  0.39108926  0.75266776  0.78732007    -0.26200
C1106       C  0.38875272  0.76691042  0.80835690    -0.14300
C1107       C  0.36265145  0.77593447  0.81542601     0.36300
C1108       C  0.33964417  0.76977282  0.80203691    -0.25700
C1109       C  0.34207681  0.75542295  0.78128913    -0.14900
C1110       C  0.36802473  0.74713953  0.77358439     0.37400
N1111       N  0.37072901  0.73294550  0.75201115    -0.89200
H1112       H  0.41090084  0.74564258  0.78158045     0.18500
H1113       H  0.31969960  0.77660154  0.80771198     0.18500
N1114       N  0.35933994  0.79217533  0.83575089    -0.88200
H1115       H  0.39117166  0.72805566  0.74889212     0.35900
H1116       H  0.36476871  0.74634634  0.73894691     0.41000
H1117       H  0.34579753  0.78209042  0.84672937     0.40600
H1118       H  0.35045973  0.81072879  0.83099280     0.35500
C1119       C  0.63440313  0.79028277  0.82857434    -0.26200
C1120       C  0.61308312  0.77274905  0.82210481    -0.14300
C1121       C  0.61824636  0.75159583  0.80623564     0.36300
C1122       C  0.64432607  0.74881267  0.79663715    -0.25700
C1123       C  0.66534301  0.76691828  0.80250568    -0.14900
C1124       C  0.66042918  0.78780286  0.81886196     0.37400
N1125       N  0.68116044  0.80682460  0.82593314    -0.89200
H1126       H  0.63065763  0.80652791  0.84086539     0.18500
H1127       H  0.64806700  0.73278319  0.78413780     0.18500
N1128       N  0.59721926  0.73265691  0.80007686    -0.88200
H1129       H  0.67527867  0.82614935  0.82017399     0.35900
H1130       H  0.69999825  0.80251070  0.81838943     0.41000
H1131       H  0.60396916  0.71304522  0.80425865     0.40600
H1132       H  0.59450727  0.73351666  0.78222132     0.35500
C1133       C  0.60369304  0.77669933  0.21388391    -0.26200
C1134       C  0.60405962  0.77707890  0.18961967    -0.14300
C1135       C  0.62919089  0.77267203  0.17811847     0.36300
C1136       C  0.65317034  0.76933604  0.19106795    -0.25700
C1137       C  0.65262537  0.76907909  0.21517814    -0.14900
C1138       C  0.62746004  0.77226158  0.22677077     0.37400
N1139       N  0.62510262  0.77060418  0.25143117    -0.89200
H1140       H  0.58473883  0.77976256  0.22310219     0.18500
H1141       H  0.67250955  0.76655462  0.18231013     0.18500
N1142       N  0.63038982  0.77077149  0.15343763    -0.88200
H1143       H  0.61944463  0.78988235  0.25750180     0.35900
H1144       H  0.64363401  0.76564428  0.25924167     0.41000
H1145       H  0.61965399  0.75325027  0.14858254     0.40600
H1146       H  0.65047847  0.76797440  0.14783707     0.35500
C1147       C  0.51574857  0.79321295  0.98768715    -0.26200
C1148       C  0.49263792  0.80362742  0.97633791    -0.14300
C1149       C  0.47037938  0.81301633  0.98962762     0.36300
C1150       C  0.47135823  0.81076179  0.01379885    -0.25700
C1151       C  0.49426532  0.79981011  0.02507597    -0.14900
C1152       C  0.51678317  0.79103662  0.01179948     0.37400
N1153       N  0.54024328  0.77900224  0.02267368    -0.89200
H1154       H  0.53282588  0.78571475  0.97768812     0.18500
H1155       H  0.45421391  0.81790390  0.02392883     0.18500
N1156       N  0.44704490  0.82514102  0.97865173    -0.88200
H1157       H  0.55512051  0.77397407  0.01047430     0.35900
H1158       H  0.53398998  0.76067025  0.03016740     0.41000
H1159       H  0.45357178  0.84309170  0.97068190     0.40600
H1160       H  0.43244487  0.83085213  0.99087675     0.35500
C1161       C  0.24974993  0.85219787  0.26967571    -0.26200
C1162       C  0.25811410  0.82835397  0.28091209    -0.14300
C1163       C  0.27139827  0.83007846  0.30235026     0.36300
C1164       C  0.27607184  0.85577439  0.31224411    -0.25700
C1165       C  0.26735215  0.87981726  0.30129940    -0.14900
C1166       C  0.25403405  0.87789518  0.27974592     0.37400
N1167       N  0.24397512  0.90174318  0.26835048    -0.89200
H1168       H  0.23950113  0.85078627  0.25315823     0.18500
H1169       H  0.28662190  0.85694945  0.32861500     0.18500
N1170       N  0.28032106  0.80568606  0.31381312    -0.88200
H1171       H  0.22291976  0.89953157  0.26606782     0.35900
H1172       H  0.25302100  0.90272921  0.25206345     0.41000
H1173       H  0.26292912  0.79446542  0.31812704     0.40600
H1174       H  0.29011988  0.81047514  0.32931398     0.35500
C1175       C  0.23555788  0.60368751  0.20000501    -0.26200
C1176       C  0.21839248  0.60218763  0.18067167    -0.14300
C1177       C  0.20335759  0.62556195  0.17400201     0.36300
C1178       C  0.20634160  0.64991379  0.18642121    -0.25700
C1179       C  0.22418941  0.65145883  0.20526541    -0.14900
C1180       C  0.23865812  0.62815209  0.21222799     0.37400
N1181       N  0.25668285  0.62942071  0.23163485    -0.89200
H1182       H  0.24709506  0.58592883  0.20536738     0.18500
H1183       H  0.19503008  0.66785405  0.18115433     0.18500
N1184       N  0.18441017  0.62500648  0.15519667    -0.88200
H1185       H  0.27621951  0.62390471  0.22607652     0.35900
H1186       H  0.25021265  0.61497742  0.24367283     0.41000
H1187       H  0.17044124  0.60924755  0.15800539     0.40600
H1188       H  0.19502481  0.62109018  0.13997258     0.35500
C1189       C  0.35019642  0.72871044  0.20913197    -0.26200
C1190       C  0.32891167  0.74662538  0.20359827    -0.14300
C1191       C  0.33306302  0.76734684  0.18725512     0.36300
C1192       C  0.35890838  0.77041642  0.17728205    -0.25700
C1193       C  0.38058951  0.75306153  0.18324046    -0.14900
C1194       C  0.37598388  0.73167222  0.19912936     0.37400
N1195       N  0.39665862  0.71216680  0.20486371    -0.89200
H1196       H  0.34679340  0.71256668  0.22153224     0.18500
H1197       H  0.36224651  0.78666947  0.16498386     0.18500
N1198       N  0.31107252  0.78539547  0.18120698    -0.88200
H1199       H  0.41260882  0.72213576  0.21329704     0.35900
H1200       H  0.40402353  0.70345595  0.18963237     0.41000
H1201       H  0.29594835  0.77369149  0.17319441     0.40600
H1202       H  0.31755634  0.79974219  0.16909122     0.35500
C1203       C  0.13113267  0.74078562  0.27617244    -0.26200
C1204       C  0.15498103  0.73055555  0.28628792    -0.14300
C1205       C  0.15376676  0.71830704  0.30828166     0.36300
C1206       C  0.12880292  0.71747793  0.31992962    -0.25700
C1207       C  0.10488737  0.72822495  0.31013233    -0.14900
C1208       C  0.10606598  0.73991823  0.28786166     0.37400
N1209       N  0.08215374  0.75154535  0.27739870    -0.89200
H1210       H  0.13227773  0.74997837  0.25923050     0.18500
H1211       H  0.12813080  0.70810936  0.33680864     0.18500
N1212       N  0.17731450  0.70669568  0.31938723    -0.88200
H1213       H  0.08653489  0.75881190  0.26088493     0.35900
H1214       H  0.07644992  0.76847806  0.28726255     0.41000
H1215       H  0.19491694  0.70876738  0.30944844     0.40600
H1216       H  0.17382893  0.68576096  0.32110466     0.35500
loop_ 
_geom_bond_atom_site_label_1 
_geom_bond_atom_site_label_2 
_geom_bond_distance 
_geom_bond_site_symmetry_2 
_ccdc_geom_bond_type 
N1            C6   1.354       .  A
N1            C5   1.352       .  A
N1           H33   1.034       .  S
N2            C9   1.350       .  A
N2           C10   1.351       .  A
N3            C8   1.352       .  A
N3            C7   1.353       .  A
N3           H34   1.037       .  S
N4           C11   1.351       .  A
N4           C12   1.349       .  A
C5           C13   1.388       .  A
C5           C21   1.418       .  A
C6           C22   1.416       .  A
C6           C14   1.387       .  A
C7           C15   1.387       .  A
C7           C24   1.414       .  A
C8           C23   1.413       .  A
C8           C16   1.386       .  A
C9           C21   1.414       .  A
C9           C17   1.388       .  A
C10          C24   1.411       .  A
C10          C18   1.385       .  A
C11          C19   1.386       .  A
C11          C22   1.411       .  A
C12          C20   1.387       .  A
C12          C23   1.412       .  A
C13          C14   1.375       .  A
C13          H25   1.082       .  S
C14          H26   1.082       .  S
C15          C16   1.374       .  A
C15          H27   1.082       .  S
C16          H28   1.082       .  S
C17          C18   1.372       .  A
C17          H29   1.082       .  S
C18          H30   1.082       .  S
C19          C20   1.370       .  A
C19          H31   1.082       .  S
C20          H32   1.082       .  S
C21        C1204   1.482       .  S
C22        C1162   1.484       .  S
C23        C1190   1.481       .  S
C24        C1179   1.484       .  S
N35          C39   1.344       .  A
N35          N36   1.320       .  A
N35         Cu43   2.077       .  S
N36          C37   1.343       .  A
N36         Cu42   2.066       .  S
C37          C38   1.388       .  A
C37          H40   1.081       .  S
C38          C39   1.391       .  A
C38        C1134   1.492       .  S
C39          H41   1.080       .  S
Cu42         N45   2.067       .  S
Cu43         N53   2.077       .  S
Cu44         N46   2.073       .  S
Cu44         N52   2.074       .  S
N45          C49   1.345       .  A
N45          N46   1.322       .  A
N46          C47   1.342       .  A
C47          C48   1.383       .  A
C47          H50   1.082       .  S
C48          C49   1.385       .  A
C48        C1193   1.477       .  S
C49          H51   1.081       .  S
N52          C56   1.345       .  A
N52          N53   1.321       .  A
N53          C54   1.345       .  A
C54          C55   1.388       .  A
C54          H57   1.081       .  S
C55          C56   1.386       .  A
C55        C1151   1.487       .  S
C56          H58   1.082       .  S
N59          C63   1.342       .  A
N59          N60   1.321       .  A
N59         Cu67   2.060       .  S
N60          C61   1.345       .  A
N60         Cu66   2.072       .  S
C61          C62   1.386       .  A
C61          H64   1.082       .  S
C62          C63   1.382       .  A
C62        C1120   1.477       .  S
C63          H65   1.082       .  S
Cu66         N69   2.072       .  S
Cu67         N77   2.060       .  S
Cu68         N70   2.086       .  S
Cu68         N76   2.086       .  S
N69          C73   1.345       .  A
N69          N70   1.322       .  A
N70          C71   1.345       .  A
C71          C72   1.390       .  A
C71          H74   1.080       .  S
C72          C73   1.387       .  A
C72        C1106   1.492       .  S
C73          H75   1.082       .  S
N76          C80   1.348       .  A
N76          N77   1.320       .  A
N77          C78   1.341       .  A
C78          C79   1.385       .  A
C78          H81   1.082       .  S
C79          C80   1.391       .  A
C79        C1148   1.489       .  S
C80          H82   1.081       .  S
N83          C87   1.345       .  A
N83          N84   1.321       .  A
N83         Cu91   2.078       .  S
N84          C85   1.343       .  A
N84         Cu90   2.065   1_455  S
C85          C86   1.385       .  A
C85          H88   1.081       .  S
C86          C87   1.388       .  A
C86        C1207   1.484       .  S
C87          H89   1.082       .  S
Cu90         N93   2.065       .  S
Cu91        N101   2.078       .  S
Cu92         N94   2.074       .  S
Cu92        N100   2.074       .  S
N93          C97   1.344       .  A
N93          N94   1.320       .  A
N94          C95   1.344       .  A
C95          C96   1.388       .  A
C95          H98   1.082       .  S
C96          C97   1.387       .  A
C96        C1078   1.487       .  S
C97          H99   1.081       .  S
N100        C104   1.344       .  A
N100        N101   1.322   1_655  A
N101        C102   1.346       .  A
C102        C103   1.386   1_455  A
C102        H105   1.081       .  S
C103        C104   1.383       .  A
C103       C1092   1.481       .  S
C104        H106   1.082       .  S
N107        C111   1.343       .  A
N107        N108   1.322       .  A
N107       Cu115   2.074       .  S
N108        C109   1.346       .  A
N108       Cu114   2.073       .  S
C109        C110   1.386       .  A
C109        H112   1.082       .  S
C110        C111   1.384       .  A
C110       C1064   1.482       .  S
C111        H113   1.081       .  S
Cu114       N117   2.072   1_655  S
Cu115       N125   2.073       .  S
Cu116       N118   2.080       .  S
Cu116       N124   2.079       .  S
N117        C121   1.344       .  A
N117        N118   1.323       .  A
N118        C119   1.346       .  A
C119        C120   1.385       .  A
C119        H122   1.082       .  S
C120        C121   1.383       .  A
C120       C1050   1.480       .  S
C121        H123   1.082       .  S
N124        C128   1.345       .  A
N124        N125   1.321   1_455  A
N125        C126   1.346       .  A
C126        C127   1.386       .  A
C126        H129   1.080       .  S
C127        C128   1.386   1_655  A
C127       C1095   1.484       .  S
C128        H130   1.082       .  S
N131        C136   1.353       .  A
N131        C135   1.353       .  A
N131        H163   1.035       .  S
N132        C139   1.350       .  A
N132        C140   1.351       .  A
N133        C138   1.353       .  A
N133        C137   1.353       .  A
N133        H164   1.036       .  S
N134        C141   1.352       .  A
N134        C142   1.352       .  A
C135        C143   1.388       .  A
C135        C151   1.418       .  A
C136        C152   1.416       .  A
C136        C144   1.387       .  A
C137        C145   1.387       .  A
C137        C154   1.416       .  A
C138        C153   1.416       .  A
C138        C146   1.387       .  A
C139        C151   1.413       .  A
C139        C147   1.387       .  A
C140        C154   1.411       .  A
C140        C148   1.386       .  A
C141        C149   1.386       .  A
C141        C152   1.415       .  A
C142        C150   1.386       .  A
C142        C153   1.415       .  A
C143        C144   1.376       .  A
C143        H155   1.082       .  S
C144        H156   1.082       .  S
C145        C146   1.376       .  A
C145        H157   1.082       .  S
C146        H158   1.082       .  S
C147        C148   1.372       .  A
C147        H159   1.082       .  S
C148        H160   1.082       .  S
C149        C150   1.372       .  A
C149        H161   1.082       .  S
C150        H162   1.082       .  S
C151       C1036   1.486       .  S
C152       C1109   1.486       .  S
C153       C1022   1.488       .  S
C154       C1053   1.485       .  S
N165        C169   1.342       .  A
N165        N166   1.321       .  A
N165       Cu173   2.075       .  S
N166        C167   1.345       .  A
N166       Cu172   2.081       .  S
C167        C168   1.394       .  A
C167        H170   1.079       .  S
C168        C169   1.391       .  A
C168        C980   1.499       .  S
C169        H171   1.081       .  S
Cu172       N175   2.081       .  S
Cu173       N183   2.075       .  S
Cu174       N176   2.069       .  S
Cu174       N182   2.069       .  S
N175        C179   1.346       .  A
N175        N176   1.321       .  A
N176        C177   1.344       .  A
C177        C178   1.384       .  A
C177        H180   1.080       .  S
C178        C179   1.387       .  A
C178        C994   1.483       .  S
C179        H181   1.082       .  S
N182        C186   1.343       .  A
N182        N183   1.321       .  A
N183        C184   1.347       .  A
C184        C185   1.385       .  A
C184        H187   1.082       .  S
C185        C186   1.384       .  A
C185       C1008   1.480       .  S
C186        H188   1.082       .  S
N189        C193   1.346       .  A
N189        N190   1.320       .  A
N189       Cu197   2.080       .  S
N190        C191   1.344       .  A
N190       Cu196   2.076       .  S
C191        C192   1.390       .  A
C191        H194   1.081       .  S
C192        C193   1.392       .  A
C192        C966   1.497       .  S
C193        H195   1.080       .  S
Cu196       N199   2.076       .  S
Cu197       N207   2.079       .  S
Cu198       N200   2.071       .  S
Cu198       N206   2.071       .  S
N199        C203   1.344       .  A
N199        N200   1.320       .  A
N200        C201   1.344       .  A
C201        C202   1.390       .  A
C201        H204   1.076       .  S
C202        C203   1.391       .  A
C202        C952   1.495       .  S
C203        H205   1.082       .  S
N206        C210   1.346       .  A
N206        N207   1.322       .  A
N207        C208   1.345       .  A
C208        C209   1.386       .  A
C208        H211   1.082       .  S
C209        C210   1.385       .  A
C209       C1011   1.483       .  S
C210        H212   1.082       .  S
N213        C217   1.345       .  A
N213        N214   1.322       .  A
N213       Cu221   2.078       .  S
N214        C215   1.345       .  A
N214       Cu220   2.075       .  S
C215        C216   1.386       .  A
C215        H218   1.082       .  S
C216        C217   1.387       .  A
C216        C924   1.486       .  S
C217        H219   1.081       .  S
Cu220       N223   2.075       .  S
Cu221       N231   2.078       .  S
Cu222       N224   2.067       .  S
Cu222       N230   2.067       .  S
N223        C227   1.344       .  A
N223        N224   1.322       .  A
N224        C225   1.344       .  A
C225        C226   1.383       .  A
C225        H228   1.081       .  S
C226        C227   1.385       .  A
C226       C1176   1.478       .  S
C227        H229   1.082       .  S
N230        C234   1.343       .  A
N230        N231   1.321       .  A
N231        C232   1.346       .  A
C232        C233   1.386       .  A
C232        H235   1.081       .  S
C233        C234   1.383       .  A
C233        C941   1.478       .  S
C234        H236   1.082       .  S
N237        C241   1.344       .  A
N237        N238   1.319       .  A
N237       Cu245   2.070       .  S
N238        C239   1.342       .  A
N238       Cu244   2.071       .  S
C239        C240   1.392       .  A
C239        H242   1.079       .  S
C240        C241   1.392       .  A
C240       C1039   1.497       .  S
C241        H243   1.081       .  S
Cu244       N247   2.071       .  S
Cu245       N255   2.071       .  S
Cu246       N248   2.081       .  S
Cu246       N254   2.080       .  S
N247        C251   1.345       .  A
N247        N248   1.320       .  A
N248        C249   1.344       .  A
C249        C250   1.392       .  A
C249        H252   1.081       .  S
C250        C251   1.392       .  A
C250        C910   1.498       .  S
C251        H253   1.079       .  S
N254        C258   1.346       .  A
N254        N255   1.322       .  A
N255        C256   1.344       .  A
C256        C257   1.384       .  A
C256        H259   1.081       .  S
C257        C258   1.385       .  A
C257        C938   1.479       .  S
C258        H260   1.082       .  S
N261        C265   1.345       .  A
N261        N262   1.321       .  A
N261       Cu269   2.080       .  S
N262        C263   1.344       .  A
N262       Cu268   2.077       .  S
C263        C264   1.390       .  A
C263        H266   1.082       .  S
C264        C265   1.391       .  A
C264        C885   1.496       .  S
C265        H267   1.077       .  S
Cu268       N271   2.077   1_655  S
Cu269       N279   2.079       .  S
Cu270       N272   2.080       .  S
Cu270       N278   2.080       .  S
N271        C275   1.348       .  A
N271        N272   1.322       .  A
N272        C273   1.343       .  A
C273        C274   1.386       .  A
C273        H276   1.081       .  S
C274        C275   1.387       .  A
C274        C868   1.486       .  S
C275        H277   1.082       .  S
N278        C282   1.347       .  A
N278        N279   1.321   1_455  A
N279        C280   1.345       .  A
C280        C281   1.387       .  A
C280        H283   1.082       .  S
C281        C282   1.389   1_655  A
C281        C896   1.489       .  S
C282        H284   1.080       .  S
N285        C289   1.344       .  A
N285        N286   1.321       .  A
N285       Cu293   2.080       .  S
N286        C287   1.347       .  A
N286       Cu292   2.075   1_655  S
C287        C288   1.389       .  A
C287        H290   1.079       .  S
C288        C289   1.387       .  A
C288        C854   1.489       .  S
C289        H291   1.082       .  S
Cu292       N295   2.074       .  S
Cu293       N303   2.081       .  S
Cu294       N296   2.081       .  S
Cu294       N302   2.082       .  S
N295        C299   1.344       .  A
N295        N296   1.322       .  A
N296        C297   1.345       .  A
C297        C298   1.387       .  A
C297        H300   1.082       .  S
C298        C299   1.386       .  A
C298        C843   1.486       .  S
C299        H301   1.081       .  S
N302        C306   1.345       .  A
N302        N303   1.321   1_455  A
N303        C304   1.346       .  A
C304        C305   1.389       .  A
C304        H307   1.079       .  S
C305        C306   1.388   1_655  A
C305        C899   1.492       .  S
C306        H308   1.082       .  S
N309        C313   1.342       .  A
N309        N310   1.322       .  A
N309       Cu317   2.063       .  S
N310        C311   1.343       .  A
N310       Cu316   2.063   1_545  S
C311        C312   1.381       .  A
C311        H314   1.082       .  S
C312        C313   1.380       .  A
C312        C812   1.469       .  S
C313        H315   1.081       .  S
Cu316       N319   2.064       .  S
Cu317       N327   2.063       .  S
Cu318       N320   2.065       .  S
Cu318       N326   2.065       .  S
N319        C323   1.345       .  A
N319        N320   1.320       .  A
N320        C321   1.340       .  A
C321        C322   1.385       .  A
C321        H324   1.082       .  S
C322        C323   1.388       .  A
C322       C1165   1.484       .  S
C323        H325   1.081       .  S
N326        C330   1.343       .  A
N326        N327   1.319   1_565  A
N327        C328   1.343       .  A
C328        C329   1.386   1_545  A
C328        H331   1.082       .  S
C329        C330   1.387       .  A
C329        C826   1.483       .  S
C330        H332   1.081       .  S
N333        C337   1.343       .  A
N333        N334   1.323       .  A
N333       Cu341   2.068       .  S
N334        C335   1.346       .  A
N334       Cu340   2.079   1_545  S
C335        C336   1.385       .  A
C335        H338   1.081       .  S
C336        C337   1.381       .  A
C336        C801   1.476       .  S
C337        H339   1.082       .  S
Cu340       N343   2.079       .  S
Cu341       N351   2.068       .  S
Cu342       N344   2.069       .  S
Cu342       N350   2.069       .  S
N343        C347   1.345       .  A
N343        N344   1.321       .  A
N344        C345   1.344       .  A
C345        C346   1.386       .  A
C345        H348   1.080       .  S
C346        C347   1.388       .  A
C346       C1025   1.485       .  S
C347        H349   1.082       .  S
N350        C354   1.343       .  A
N350        N351   1.321   1_565  A
N351        C352   1.345       .  A
C352        C353   1.385   1_545  A
C352        H355   1.082       .  S
C353        C354   1.383       .  A
C353        C829   1.478       .  S
C354        H356   1.082       .  S
N357        C362   1.352       .  A
N357        C361   1.352       .  A
N357        H389   1.038       .  S
N358        C365   1.350       .  A
N358        C366   1.351       .  A
N359        C364   1.353       .  A
N359        C363   1.351       .  A
N359        H390   1.040       .  S
N360        C367   1.349       .  A
N360        C368   1.351       .  A
C361        C369   1.387       .  A
C361        C377   1.414       .  A
C362        C378   1.414       .  A
C362        C370   1.387       .  A
C363        C371   1.386       .  A
C363        C380   1.412       .  A
C364        C379   1.412       .  A
C364        C372   1.386       .  A
C365        C377   1.412       .  A
C365        C373   1.386       .  A
C366        C380   1.412       .  A
C366        C374   1.386       .  A
C367        C375   1.387       .  A
C367        C378   1.412       .  A
C368        C376   1.385       .  A
C368        C379   1.411       .  A
C369        C370   1.376       .  A
C369        H381   1.082       .  S
C370        H382   1.082       .  S
C371        C372   1.375       .  A
C371        H383   1.082       .  S
C372        H384   1.082       .  S
C373        C374   1.375       .  A
C373        H385   1.082       .  S
C374        H386   1.082       .  S
C375        C376   1.375       .  A
C375        H387   1.082       .  S
C376        H388   1.082       .  S
C377        C798   1.485       .  S
C378        C840   1.482       .  S
C379        C913   1.491       .  S
C380        C955   1.487       .  S
N391        C396   1.351       .  A
N391        C395   1.354       .  A
N391        H423   1.038       .  S
N392        C399   1.350       .  A
N392        C400   1.349       .  A
N393        C398   1.353       .  A
N393        C397   1.352       .  A
N393        H424   1.037       .  S
N394        C401   1.352       .  A
N394        C402   1.352       .  A
C395        C403   1.386       .  A
C395        C411   1.413       .  A
C396        C412   1.414       .  A
C396        C404   1.388       .  A
C397        C405   1.387       .  A
C397        C414   1.414       .  A
C398        C413   1.415       .  A
C398        C406   1.387       .  A
C399        C411   1.409       .  A
C399        C407   1.385       .  A
C400        C414   1.411       .  A
C400        C408   1.387       .  A
C401        C409   1.385       .  A
C401        C412   1.413       .  A
C402        C410   1.387       .  A
C402        C413   1.415       .  A
C403        C404   1.374       .  A
C403        H415   1.082       .  S
C404        H416   1.082       .  S
C405        C406   1.375       .  A
C405        H417   1.082       .  S
C406        H418   1.082       .  S
C407        C408   1.369       .  A
C407        H419   1.082       .  S
C408        H420   1.082       .  S
C409        C410   1.372       .  A
C409        H421   1.082       .  S
C410        H422   1.082       .  S
C411        C983   1.485       .  S
C412        C927   1.485       .  S
C413        C871   1.486       .  S
C414        C815   1.480       .  S
N425        C430   1.353       .  A
N425        C429   1.352       .  A
N425        H457   1.039       .  S
N426        C433   1.351       .  A
N426        C434   1.352       .  A
N427        C432   1.353       .  A
N427        C431   1.354       .  A
N427        H458   1.038       .  S
N428        C435   1.352       .  A
N428        C436   1.351       .  A
C429        C437   1.387       .  A
C429        C445   1.412       .  A
C430        C446   1.414       .  A
C430        C438   1.387       .  A
C431        C439   1.387       .  A
C431        C448   1.417       .  A
C432        C447   1.417       .  A
C432        C440   1.388       .  A
C433        C445   1.412       .  A
C433        C441   1.386       .  A
C434        C448   1.415       .  A
C434        C442   1.386       .  A
C435        C443   1.386       .  A
C435        C446   1.413       .  A
C436        C444   1.387       .  A
C436        C447   1.414       .  A
C437        C438   1.375       .  A
C437        H449   1.082       .  S
C438        H450   1.082       .  S
C439        C440   1.375       .  A
C439        H451   1.082       .  S
C440        H452   1.082       .  S
C441        C442   1.373       .  A
C441        H453   1.082       .  S
C442        H454   1.082       .  S
C443        C444   1.373       .  A
C443        H455   1.082       .  S
C444        H456   1.082       .  S
C445        C770   1.484       .  S
C446        C997   1.489       .  S
C447        C787   1.487       .  S
C448        C882   1.493       .  S
N459        C463   1.344       .  A
N459        N460   1.322       .  A
N459       Cu467   2.068       .  S
N460        C461   1.344       .  A
N460       Cu466   2.071       .  S
C461        C462   1.383       .  A
C461        H464   1.082       .  S
C462        C463   1.382       .  A
C462        C773   1.475       .  S
C463        H465   1.082       .  S
Cu466       N469   2.071       .  S
Cu467       N477   2.068       .  S
Cu468       N470   2.071       .  S
Cu468       N476   2.071       .  S
N469        C473   1.344       .  A
N469        N470   1.320       .  A
N470        C471   1.342       .  A
C471        C472   1.389       .  A
C471        H474   1.081       .  S
C472        C473   1.390       .  A
C472        C742   1.492       .  S
C473        H475   1.080       .  S
N476        C480   1.344       .  A
N476        N477   1.321       .  A
N477        C478   1.343       .  A
C478        C479   1.385       .  A
C478        H481   1.082       .  S
C479        C480   1.386       .  A
C479        C759   1.481       .  S
C480        H482   1.081       .  S
N483        C487   1.342       .  A
N483        N484   1.323       .  A
N483       Cu491   2.063       .  S
N484        C485   1.348       .  A
N484       Cu490   2.095       .  S
C485        C486   1.389       .  A
C485        H488   1.082       .  S
C486        C487   1.381       .  A
C486        C728   1.482       .  S
C487        H489   1.080       .  S
Cu490       N493   2.095       .  S
Cu491       N501   2.063       .  S
Cu492       N494   2.063       .  S
Cu492       N500   2.062       .  S
N493        C497   1.348       .  A
N493        N494   1.322       .  A
N494        C495   1.343       .  A
C495        C496   1.384       .  A
C495        H498   1.082       .  S
C496        C497   1.392       .  A
C496        C714   1.490       .  S
C497        H499   1.081       .  S
N500        C504   1.342       .  A
N500        N501   1.320       .  A
N501        C502   1.344       .  A
C502        C503   1.385       .  A
C502        H505   1.082       .  S
C503        C504   1.384       .  A
C503        C756   1.478       .  S
C504        H506   1.081       .  S
N507        C511   1.345       .  A
N507        N508   1.320       .  A
N507       Cu515   2.075       .  S
N508        C509   1.342       .  A
N508       Cu514   2.070       .  S
C509        C510   1.388       .  A
C509        H512   1.082       .  S
C510        C511   1.390       .  A
C510        C784   1.490       .  S
C511        H513   1.078       .  S
Cu514       N517   2.070   1_545  S
Cu515       N525   2.075       .  S
Cu516       N518   2.068       .  S
Cu516       N524   2.068       .  S
N517        C521   1.345       .  A
N517        N518   1.322       .  A
N518        C519   1.343       .  A
C519        C520   1.382       .  A
C519        H522   1.082       .  S
C520        C521   1.383       .  A
C520        C689   1.475       .  S
C521        H523   1.082       .  S
N524        C528   1.346       .  A
N524        N525   1.321   1_565  A
N525        C526   1.343       .  A
C526        C527   1.386       .  A
C526        H529   1.082       .  S
C527        C528   1.386   1_545  A
C527        C700   1.483       .  S
C528        H530   1.081       .  S
N531        C535   1.344       .  A
N531        N532   1.322       .  A
N531       Cu539   2.063       .  S
N532        C533   1.344       .  A
N532       Cu538   2.079       .  S
C533        C534   1.386       .  A
C533        H536   1.081       .  S
C534        C535   1.383       .  A
C534        C658   1.480       .  S
C535        H537   1.082       .  S
Cu538       N541   2.080   1_545  S
Cu539       N549   2.063       .  S
Cu540       N542   2.070       .  S
Cu540       N548   2.070       .  S
N541        C545   1.346       .  A
N541        N542   1.320       .  A
N542        C543   1.342       .  A
C543        C544   1.389       .  A
C543        H546   1.076       .  S
C544        C545   1.392       .  A
C544        C672   1.495       .  S
C545        H547   1.082       .  S
N548        C552   1.346       .  A
N548        N549   1.320   1_565  A
N549        C550   1.342       .  A
C550        C551   1.384       .  A
C550        H553   1.081       .  S
C551        C552   1.386   1_545  A
C551        C703   1.481       .  S
C552        H554   1.082       .  S
N555        C560   1.354       .  A
N555        C559   1.354       .  A
N555        H587   1.036       .  S
N556        C563   1.352       .  A
N556        C564   1.351       .  A
N557        C562   1.354       .  A
N557        C561   1.353       .  A
N557        H588   1.037       .  S
N558        C565   1.352       .  A
N558        C566   1.353       .  A
C559        C567   1.386       .  A
C559        C575   1.417       .  A
C560        C576   1.419       .  A
C560        C568   1.388       .  A
C561        C569   1.387       .  A
C561        C578   1.415       .  A
C562        C577   1.415       .  A
C562        C570   1.387       .  A
C563        C575   1.414       .  A
C563        C571   1.386       .  A
C564        C578   1.414       .  A
C564        C572   1.387       .  A
C565        C573   1.387       .  A
C565        C576   1.417       .  A
C566        C574   1.385       .  A
C566        C577   1.415       .  A
C567        C568   1.376       .  A
C567        H579   1.082       .  S
C568        H580   1.082       .  S
C569        C570   1.374       .  A
C569        H581   1.082       .  S
C570        H582   1.082       .  S
C571        C572   1.373       .  A
C571        H583   1.082       .  S
C572        H584   1.082       .  S
C573        C574   1.373       .  A
C573        H585   1.082       .  S
C574        H586   1.082       .  S
C575        C969   1.488       .  S
C576        C717   1.489       .  S
C577        C857   1.491       .  S
C578        C661   1.484       .  S
N589        C594   1.352       .  A
N589        C593   1.353       .  A
N589        H621   1.037       .  S
N590        C597   1.351       .  A
N590        C598   1.350       .  A
N591        C596   1.355       .  A
N591        C595   1.353       .  A
N591        H622   1.036       .  S
N592        C599   1.351       .  A
N592        C600   1.351       .  A
C593        C601   1.387       .  A
C593        C609   1.414       .  A
C594        C610   1.414       .  A
C594        C602   1.387       .  A
C595        C603   1.386       .  A
C595        C612   1.415       .  A
C596        C611   1.419       .  A
C596        C604   1.388       .  A
C597        C609   1.412       .  A
C597        C605   1.386       .  A
C598        C612   1.411       .  A
C598        C606   1.386       .  A
C599        C607   1.385       .  A
C599        C610   1.413       .  A
C600        C608   1.388       .  A
C600        C611   1.416       .  A
C601        C602   1.375       .  A
C601        H613   1.082       .  S
C602        H614   1.082       .  S
C603        C604   1.373       .  A
C603        H615   1.082       .  S
C604        H616   1.081       .  S
C605        C606   1.371       .  A
C605        H617   1.082       .  S
C606        H618   1.082       .  S
C607        C608   1.371       .  A
C607        H619   1.082       .  S
C608        H620   1.082       .  S
C609       C1137   1.486       .  S
C610        C745   1.483       .  S
C611       C1081   1.490       .  S
C612        C686   1.485       .  S
N623        C628   1.352       .  A
N623        C627   1.352       .  A
N623        H655   1.038       .  S
N624        C631   1.350       .  A
N624        C632   1.351       .  A
N625        C630   1.354       .  A
N625        C629   1.355       .  A
N625        H656   1.037       .  S
N626        C633   1.353       .  A
N626        C634   1.351       .  A
C627        C635   1.387       .  A
C627        C643   1.414       .  A
C628        C644   1.414       .  A
C628        C636   1.387       .  A
C629        C637   1.387       .  A
C629        C646   1.420       .  A
C630        C645   1.418       .  A
C630        C638   1.387       .  A
C631        C643   1.412       .  A
C631        C639   1.387       .  A
C632        C646   1.414       .  A
C632        C640   1.386       .  A
C633        C641   1.385       .  A
C633        C644   1.414       .  A
C634        C642   1.388       .  A
C634        C645   1.416       .  A
C635        C636   1.375       .  A
C635        H647   1.082       .  S
C636        H648   1.082       .  S
C637        C638   1.375       .  A
C637        H649   1.082       .  S
C638        H650   1.082       .  S
C639        C640   1.370       .  A
C639        H651   1.082       .  S
C640        H652   1.082       .  S
C641        C642   1.372       .  A
C641        H653   1.082       .  S
C642        H654   1.082       .  S
C643       C1123   1.483       .  S
C644        C731   1.488       .  S
C645       C1067   1.486       .  S
C646        C675   1.494       .  S
C657        C658   1.406       .  A
C657        C662   1.406       .  A
C657        H664   1.083       .  S
C658        C659   1.410       .  A
C659        C660   1.400       .  A
C659        N666   1.432       .  S
C660        C661   1.400       .  A
C660        H665   1.084       .  S
C661        C662   1.409       .  A
C662        N663   1.437       .  S
N663        H667   1.046       .  S
N663        H668   1.046       .  S
N666        H669   1.046       .  S
N666        H670   1.046       .  S
C671        C672   1.408       .  A
C671        C676   1.403       .  A
C671        H678   1.083       .  S
C672        C673   1.422       .  A
C673        C674   1.398       .  A
C673        N680   1.430       .  S
C674        C675   1.400       .  A
C674        H679   1.084       .  S
C675        C676   1.418       .  A
C676        N677   1.438       .  S
N677        H681   1.046       .  S
N677        H682   1.043       .  S
N680        H683   1.045       .  S
N680        H684   1.043       .  S
C685        C686   1.401       .  A
C685        C690   1.402       .  A
C685        H692   1.084       .  S
C686        C687   1.416       .  A
C687        C688   1.401       .  A
C687        N694   1.438       .  S
C688        C689   1.403       .  A
C688        H693   1.084       .  S
C689        C690   1.410       .  A
C690        N691   1.438       .  S
N691        H695   1.046       .  S
N691        H696   1.046       .  S
N694        H697   1.043       .  S
N694        H698   1.045       .  S
C699        C700   1.403       .  A
C699        C704   1.400       .  A
C699        H706   1.083       .  S
C700        C701   1.412   1_545  A
C701        C702   1.406       .  A
C701        N708   1.432       .  S
C702        C703   1.405   1_565  A
C702        H707   1.084       .  S
C703        C704   1.409       .  A
C704        N705   1.432       .  S
N705        H709   1.045       .  S
N705        H710   1.046       .  S
N708        H711   1.046       .  S
N708        H712   1.046       .  S
C713        C714   1.408       .  A
C713        C718   1.403       .  A
C713        H720   1.083       .  S
C714        C715   1.414       .  A
C715        C716   1.406       .  A
C715        N722   1.437       .  S
C716        C717   1.401       .  A
C716        H721   1.084       .  S
C717        C718   1.415       .  A
C718        N719   1.439       .  S
N719        H723   1.045       .  S
N719        H724   1.043       .  S
N722        H725   1.046       .  S
N722        H726   1.046       .  S
C727        C728   1.404       .  A
C727        C732   1.406       .  A
C727        H734   1.084       .  S
C728        C729   1.418       .  A
C729        C730   1.400       .  A
C729        N736   1.432       .  S
C730        C731   1.401       .  A
C730        H735   1.084       .  S
C731        C732   1.409       .  A
C732        N733   1.437       .  S
N733        H737   1.046       .  S
N733        H738   1.045       .  S
N736        H739   1.045       .  S
N736        H740   1.043       .  S
C741        C742   1.409       .  A
C741        C746   1.403       .  A
C741        H748   1.082       .  S
C742        C743   1.419       .  A
C743        C744   1.406       .  A
C743        N750   1.436       .  S
C744        C745   1.399       .  A
C744        H749   1.084       .  S
C745        C746   1.405       .  A
C746        N747   1.438       .  S
N747        H751   1.046       .  S
N747        H752   1.045       .  S
N750        H753   1.046       .  S
N750        H754   1.046       .  S
C755        C756   1.403       .  A
C755        C760   1.403   1_556  A
C755        H762   1.084       .  S
C756        C757   1.409       .  A
C757        C758   1.401   1_556  A
C757        N764   1.432       .  S
C758        C759   1.404       .  A
C758        H763   1.083       .  S
C759        C760   1.411       .  A
C760        N761   1.432       .  S
N761        H765   1.046       .  S
N761        H766   1.046       .  S
N764        H767   1.046       .  S
N764        H768   1.045       .  S
C769        C770   1.402       .  A
C769        C774   1.401       .  A
C769        H776   1.084       .  S
C770        C771   1.417       .  A
C771        C772   1.401       .  A
C771        N778   1.439       .  S
C772        C773   1.402       .  A
C772        H777   1.084       .  S
C773        C774   1.407       .  A
C774        N775   1.432       .  S
N775        H779   1.045       .  S
N775        H780   1.046       .  S
N778        H781   1.043       .  S
N778        H782   1.046       .  S
C783        C784   1.408       .  A
C783        C788   1.400       .  A
C783        H790   1.083       .  S
C784        C785   1.419       .  A
C785        C786   1.399       .  A
C785        N792   1.431       .  S
C786        C787   1.401       .  A
C786        H791   1.084       .  S
C787        C788   1.414       .  A
C788        N789   1.439       .  S
N789        H793   1.046       .  S
N789        H794   1.043       .  S
N792        H795   1.042       .  S
N792        H796   1.045       .  S
C797        C798   1.403       .  A
C797        C802   1.398       .  A
C797        H804   1.084       .  S
C798        C799   1.416       .  A
C799        C800   1.401       .  A
C799        N806   1.439       .  S
C800        C801   1.403       .  A
C800        H805   1.084       .  S
C801        C802   1.413       .  A
C802        N803   1.432       .  S
N803        H807   1.044       .  S
N803        H808   1.046       .  S
N806        H809   1.043       .  S
N806        H810   1.046       .  S
C811        C812   1.404       .  A
C811        C816   1.403       .  A
C811        H818   1.084       .  S
C812        C813   1.412       .  A
C813        C814   1.394       .  A
C813        N820   1.433       .  S
C814        C815   1.401       .  A
C814        H819   1.084       .  S
C815        C816   1.408       .  A
C816        N817   1.437       .  S
N817        H821   1.047       .  S
N817        H822   1.045       .  S
N820        H823   1.045       .  S
N820        H824   1.044       .  S
C825        C826   1.405   1_545  A
C825        C830   1.404       .  A
C825        H832   1.083       .  S
C826        C827   1.414       .  A
C827        C828   1.405       .  A
C827        N834   1.437       .  S
C828        C829   1.402       .  A
C828        H833   1.084       .  S
C829        C830   1.410   1_565  A
C830        N831   1.438       .  S
N831        H835   1.046       .  S
N831        H836   1.046       .  S
N834        H837   1.046       .  S
N834        H838   1.046       .  S
C839        C840   1.399       .  A
C839        C844   1.405       .  A
C839        H846   1.084       .  S
C840        C841   1.406       .  A
C841        C842   1.405       .  A
C841        N848   1.437       .  S
C842        C843   1.407       .  A
C842        H847   1.083       .  S
C843        C844   1.416       .  A
C844        N845   1.437       .  S
N845        H849   1.046       .  S
N845        H850   1.046       .  S
N848        H851   1.045       .  S
N848        H852   1.046       .  S
C853        C854   1.407       .  A
C853        C858   1.407       .  A
C853        H860   1.083       .  S
C854        C855   1.419       .  A
C855        C856   1.402       .  A
C855        N862   1.432       .  S
C856        C857   1.401       .  A
C856        H861   1.084       .  S
C857        C858   1.408       .  A
C858        N859   1.437       .  S
N859        H863   1.045       .  S
N859        H864   1.045       .  S
N862        H865   1.043       .  S
N862        H866   1.045       .  S
C867        C868   1.407       .  A
C867        C872   1.406       .  A
C867        H874   1.083       .  S
C868        C869   1.413       .  A
C869        C870   1.402       .  A
C869        N876   1.432       .  S
C870        C871   1.399       .  A
C870        H875   1.084       .  S
C871        C872   1.406       .  A
C872        N873   1.432       .  S
N873        H877   1.046       .  S
N873        H878   1.045       .  S
N876        H879   1.046       .  S
N876        H880   1.046       .  S
C881        C882   1.402       .  A
C881        C886   1.399       .  A
C881        H888   1.084       .  S
C882        C883   1.416       .  A
C883        C884   1.402       .  A
C883        N890   1.438       .  S
C884        C885   1.409       .  A
C884        H889   1.083       .  S
C885        C886   1.421       .  A
C886        N887   1.431       .  S
N887        H891   1.043       .  S
N887        H892   1.045       .  S
N890        H893   1.043       .  S
N890        H894   1.045       .  S
C895        C896   1.405       .  A
C895        C900   1.402       .  A
C895        H902   1.084       .  S
C896        C897   1.415   1_655  A
C897        C898   1.402       .  A
C897        N904   1.432       .  S
C898        C899   1.406   1_455  A
C898        H903   1.084       .  S
C899        C900   1.419       .  A
C900        N901   1.432       .  S
N901        H905   1.043       .  S
N901        H906   1.045       .  S
N904        H907   1.045       .  S
N904        H908   1.043       .  S
C909        C910   1.409       .  A
C909        C914   1.398       .  A
C909        H916   1.081       .  S
C910        C911   1.421       .  A
C911        C912   1.409       .  A
C911        N918   1.436       .  S
C912        C913   1.401       .  A
C912        H917   1.084       .  S
C913        C914   1.411       .  A
C914        N915   1.433       .  S
N915        H919   1.044       .  S
N915        H920   1.046       .  S
N918        H921   1.046       .  S
N918        H922   1.046       .  S
C923        C924   1.405       .  A
C923        C928   1.400       .  A
C923        H930   1.083       .  S
C924        C925   1.414       .  A
C925        C926   1.406       .  A
C925        N932   1.437       .  S
C926        C927   1.401       .  A
C926        H931   1.084       .  S
C927        C928   1.414       .  A
C928        N929   1.439       .  S
N929        H933   1.045       .  S
N929        H934   1.043       .  S
N932        H935   1.046       .  S
N932        H936   1.046       .  S
C937        C938   1.404       .  A
C937        C942   1.401   1_556  A
C937        H944   1.084       .  S
C938        C939   1.415       .  A
C939        C940   1.398   1_556  A
C939        N946   1.432       .  S
C940        C941   1.403       .  A
C940        H945   1.084       .  S
C941        C942   1.413       .  A
C942        N943   1.432       .  S
N943        H947   1.044       .  S
N943        H948   1.046       .  S
N946        H949   1.045       .  S
N946        H950   1.043       .  S
C951        C952   1.410       .  A
C951        C956   1.406       .  A
C951        H958   1.082       .  S
C952        C953   1.422       .  A
C953        C954   1.398       .  A
C953        N960   1.431       .  S
C954        C955   1.400       .  A
C954        H959   1.084       .  S
C955        C956   1.406       .  A
C956        N957   1.437       .  S
N957        H961   1.046       .  S
N957        H962   1.046       .  S
N960        H963   1.045       .  S
N960        H964   1.043       .  S
C965        C966   1.410       .  A
C965        C970   1.407       .  A
C965        H972   1.081       .  S
C966        C967   1.417       .  A
C967        C968   1.404       .  A
C967        N974   1.431       .  S
C968        C969   1.399       .  A
C968        H973   1.084       .  S
C969        C970   1.407       .  A
C970        N971   1.437       .  S
N971        H975   1.046       .  S
N971        H976   1.045       .  S
N974        H977   1.046       .  S
N974        H978   1.046       .  S
C979        C980   1.412       .  A
C979        C984   1.397       .  A
C979        H986   1.081       .  S
C980        C981   1.421       .  A
C981        C982   1.406       .  A
C981        N988   1.436       .  S
C982        C983   1.399       .  A
C982        H987   1.084       .  S
C983        C984   1.406       .  A
C984        N985   1.433       .  S
N985        H989   1.045       .  S
N985        H990   1.046       .  S
N988        H991   1.046       .  S
N988        H992   1.046       .  S
C993        C994   1.405       .  A
C993        C998   1.407       .  A
C993       H1000   1.084       .  S
C994        C995   1.417       .  A
C995        C996   1.398       .  A
C995       N1002   1.432       .  S
C996        C997   1.401       .  A
C996       H1001   1.084       .  S
C997        C998   1.411       .  A
C998        N999   1.438       .  S
N999       H1003   1.046       .  S
N999       H1004   1.044       .  S
N1002      H1005   1.042       .  S
N1002      H1006   1.046       .  S
C1007      C1008   1.403       .  A
C1007      C1012   1.406   1_554  A
C1007      H1014   1.084       .  S
C1008      C1009   1.412       .  A
C1009      C1010   1.404   1_554  A
C1009      N1016   1.438       .  S
C1010      C1011   1.403       .  A
C1010      H1015   1.083       .  S
C1011      C1012   1.411       .  A
C1012      N1013   1.432       .  S
N1013      H1017   1.046       .  S
N1013      H1018   1.046       .  S
N1016      H1019   1.046       .  S
N1016      H1020   1.046       .  S
C1021      C1022   1.401       .  A
C1021      C1026   1.399       .  A
C1021      H1028   1.084       .  S
C1022      C1023   1.408       .  A
C1023      C1024   1.406       .  A
C1023      N1030   1.438       .  S
C1024      C1025   1.406       .  A
C1024      H1029   1.083       .  S
C1025      C1026   1.418       .  A
C1026      N1027   1.432       .  S
N1027      H1031   1.046       .  S
N1027      H1032   1.042       .  S
N1030      H1033   1.045       .  S
N1030      H1034   1.046       .  S
C1035      C1036   1.399       .  A
C1035      C1040   1.404       .  A
C1035      H1042   1.084       .  S
C1036      C1037   1.412       .  A
C1037      C1038   1.400       .  A
C1037      N1044   1.439       .  S
C1038      C1039   1.410       .  A
C1038      H1043   1.081       .  S
C1039      C1040   1.420       .  A
C1040      N1041   1.436       .  S
N1041      H1045   1.046       .  S
N1041      H1046   1.046       .  S
N1044      H1047   1.043       .  S
N1044      H1048   1.045       .  S
C1049      C1050   1.404       .  A
C1049      C1054   1.402       .  A
C1049      H1056   1.084       .  S
C1050      C1051   1.412       .  A
C1051      C1052   1.404       .  A
C1051      N1058   1.437       .  S
C1052      C1053   1.401       .  A
C1052      H1057   1.084       .  S
C1053      C1054   1.415       .  A
C1054      N1055   1.438       .  S
N1055      H1059   1.046       .  S
N1055      H1060   1.043       .  S
N1058      H1061   1.046       .  S
N1058      H1062   1.046       .  S
C1063      C1064   1.406       .  A
C1063      C1068   1.408       .  A
C1063      H1070   1.083       .  S
C1064      C1065   1.411       .  A
C1065      C1066   1.401       .  A
C1065      N1072   1.432       .  S
C1066      C1067   1.399       .  A
C1066      H1071   1.084       .  S
C1067      C1068   1.410       .  A
C1068      N1069   1.437       .  S
N1069      H1073   1.045       .  S
N1069      H1074   1.045       .  S
N1072      H1075   1.046       .  S
N1072      H1076   1.046       .  S
C1077      C1078   1.406       .  A
C1077      C1082   1.405       .  A
C1077      H1084   1.083       .  S
C1078      C1079   1.414       .  A
C1079      C1080   1.402       .  A
C1079      N1086   1.431       .  S
C1080      C1081   1.401       .  A
C1080      H1085   1.084       .  S
C1081      C1082   1.410       .  A
C1082      N1083   1.438       .  S
N1083      H1087   1.045       .  S
N1083      H1088   1.045       .  S
N1086      H1089   1.046       .  S
N1086      H1090   1.046       .  S
C1091      C1092   1.403       .  A
C1091      C1096   1.400       .  A
C1091      H1098   1.084       .  S
C1092      C1093   1.414   1_655  A
C1093      C1094   1.400       .  A
C1093      N1100   1.432       .  S
C1094      C1095   1.404   1_455  A
C1094      H1099   1.084       .  S
C1095      C1096   1.417       .  A
C1096      N1097   1.432       .  S
N1097      H1101   1.043       .  S
N1097      H1102   1.045       .  S
N1100      H1103   1.046       .  S
N1100      H1104   1.043       .  S
C1105      C1106   1.410       .  A
C1105      C1110   1.408       .  A
C1105      H1112   1.082       .  S
C1106      C1107   1.414       .  A
C1107      C1108   1.401       .  A
C1107      N1114   1.431       .  S
C1108      C1109   1.398       .  A
C1108      H1113   1.084       .  S
C1109      C1110   1.407       .  A
C1110      N1111   1.437       .  S
N1111      H1115   1.046       .  S
N1111      H1116   1.046       .  S
N1114      H1117   1.046       .  S
N1114      H1118   1.046       .  S
C1119      C1120   1.404       .  A
C1119      C1124   1.400       .  A
C1119      H1126   1.084       .  S
C1120      C1121   1.409       .  A
C1121      C1122   1.401       .  A
C1121      N1128   1.432       .  S
C1122      C1123   1.401       .  A
C1122      H1127   1.084       .  S
C1123      C1124   1.415       .  A
C1124      N1125   1.438       .  S
N1125      H1129   1.046       .  S
N1125      H1130   1.043       .  S
N1128      H1131   1.046       .  S
N1128      H1132   1.046       .  S
C1133      C1134   1.408       .  A
C1133      C1138   1.400       .  A
C1133      H1140   1.082       .  S
C1134      C1135   1.417       .  A
C1135      C1136   1.404       .  A
C1135      N1142   1.436       .  S
C1136      C1137   1.400       .  A
C1136      H1141   1.084       .  S
C1137      C1138   1.414       .  A
C1138      N1139   1.438       .  S
N1139      H1143   1.045       .  S
N1139      H1144   1.043       .  S
N1142      H1145   1.046       .  S
N1142      H1146   1.046       .  S
C1147      C1148   1.406       .  A
C1147      C1152   1.405   1_556  A
C1147      H1154   1.082       .  S
C1148      C1149   1.413       .  A
C1149      C1150   1.408   1_556  A
C1149      N1156   1.437       .  S
C1150      C1151   1.406       .  A
C1150      H1155   1.083       .  S
C1151      C1152   1.413       .  A
C1152      N1153   1.438       .  S
N1153      H1157   1.046       .  S
N1153      H1158   1.046       .  S
N1156      H1159   1.046       .  S
N1156      H1160   1.046       .  S
C1161      C1162   1.401       .  A
C1161      C1166   1.404       .  A
C1161      H1168   1.084       .  S
C1162      C1163   1.406       .  A
C1163      C1164   1.402       .  A
C1163      N1170   1.437       .  S
C1164      C1165   1.406       .  A
C1164      H1169   1.083       .  S
C1165      C1166   1.413       .  A
C1166      N1167   1.432       .  S
N1167      H1171   1.046       .  S
N1167      H1172   1.046       .  S
N1170      H1173   1.045       .  S
N1170      H1174   1.046       .  S
C1175      C1176   1.403       .  A
C1175      C1180   1.401       .  A
C1175      H1182   1.084       .  S
C1176      C1177   1.416       .  A
C1177      C1178   1.401       .  A
C1177      N1184   1.432       .  S
C1178      C1179   1.402       .  A
C1178      H1183   1.084       .  S
C1179      C1180   1.404       .  A
C1180      N1181   1.432       .  S
N1181      H1185   1.046       .  S
N1181      H1186   1.045       .  S
N1184      H1187   1.046       .  S
N1184      H1188   1.043       .  S
C1189      C1190   1.401       .  A
C1189      C1194   1.399       .  A
C1189      H1196   1.084       .  S
C1190      C1191   1.406       .  A
C1191      C1192   1.401       .  A
C1191      N1198   1.438       .  S
C1192      C1193   1.404       .  A
C1192      H1197   1.084       .  S
C1193      C1194   1.416       .  A
C1194      N1195   1.432       .  S
N1195      H1199   1.043       .  S
N1195      H1200   1.045       .  S
N1198      H1201   1.046       .  S
N1198      H1202   1.045       .  S
C1203      C1204   1.400       .  A
C1203      C1208   1.404       .  A
C1203      H1210   1.084       .  S
C1204      C1205   1.413       .  A
C1205      C1206   1.399       .  A
C1205      N1212   1.439       .  S
C1206      C1207   1.405       .  A
C1206      H1211   1.083       .  S
C1207      C1208   1.416       .  A
C1208      N1209   1.437       .  S
N1209      H1213   1.046       .  S
N1209      H1214   1.045       .  S
N1212      H1215   1.043       .  S
N1212      H1216   1.046       .  S
