geometry optimzed in LAMMPS
_audit_creation_date              2020-12-01 
_audit_creation_method            'lammps2cif' 
_symmetry_space_group_name_H-M    'P1' 
_symmetry_Int_Tables_number       1 
_symmetry_cell_setting            triclinic 
loop_ 
_symmetry_equiv_pos_as_xyz 
  x,y,z 
_cell_length_a                    41.87822283 
_cell_length_b                    41.54314278582409 
_cell_length_c                    72.6905647372832 
_cell_angle_alpha                 90.12524758099659 
_cell_angle_beta                  90.07985093881416 
_cell_angle_gamma                 119.8881045422257 
loop_ 
_atom_site_label 
_atom_site_type_symbol 
_atom_site_fract_x 
_atom_site_fract_y 
_atom_site_fract_z 
_atom_site_charge 
C1          C  0.33529578  0.17163103  0.56808120     0.45600
H2          H  0.33488834  0.17274601  0.58336429    -0.03400
C3          C  0.33625767  0.16873169  0.53229695     0.45600
H4          H  0.33702481  0.16734259  0.51707182    -0.03400
C5          C  0.37382794  0.18707211  0.56014442    -0.17100
C6          C  0.31289542  0.13239189  0.56050007    -0.16900
C7          C  0.31977132  0.19366381  0.55885322    -0.17300
C8          C  0.37490810  0.18461188  0.54132708    -0.17200
C9          C  0.31263916  0.13026818  0.54164034    -0.16800
C10         C  0.32053129  0.19330459  0.53988152    -0.17100
C11         C  0.16803617  0.33203629  0.49284461     0.45600
H12         H  0.16988549  0.33062558  0.50802988    -0.03400
C13         C  0.16415502  0.33599028  0.45721611     0.45600
H14         H  0.16208711  0.33797986  0.44208865    -0.03400
C15         C  0.18736868  0.31414718  0.48216815    -0.17100
C16         C  0.12800950  0.31228009  0.48520390    -0.16900
C17         C  0.18665854  0.37225208  0.48547114    -0.17300
C18         C  0.18436281  0.31545143  0.46326866    -0.17200
C19         C  0.12641944  0.31543028  0.46640990    -0.16800
C20         C  0.18422905  0.37385370  0.46669743    -0.17100
Zn21       Zn  0.11763508  0.30790683  0.68859562     1.49700
Zn22       Zn  0.19380867  0.38667368  0.68894768     1.49400
Zn23       Zn  0.19481051  0.30966386  0.68650784     1.49100
Zn24       Zn  0.16788350  0.33902922  0.65315567     1.49500
O25         O  0.16838751  0.33571690  0.67956497    -1.84000
O26         O  0.10786037  0.34059286  0.70548072    -0.74600
O27         O  0.23838405  0.39582984  0.70328937    -0.74400
O28         O  0.16402339  0.26598892  0.70300186    -0.74000
O29         O  0.16097278  0.39390152  0.70633459    -0.74600
O30         O  0.11027731  0.26434128  0.70417056    -0.74200
O31         O  0.23965426  0.34313082  0.70126697    -0.74800
O32         O  0.19463441  0.31658102  0.64150798    -0.74200
O33         O  0.20969984  0.42592147  0.66896340    -0.75000
O34         O  0.21113472  0.29254456  0.66418599    -0.74400
O35         O  0.19073012  0.39074914  0.64405420    -0.74800
O36         O  0.11720585  0.31231884  0.64330802    -0.74700
O37         O  0.08043023  0.28931243  0.66742477    -0.74500
C38         C  0.12778144  0.37361750  0.71150004     0.77300
C39         C  0.25308094  0.37622502  0.70716279     0.77800
C40         C  0.13121299  0.25170844  0.70900924     0.76700
C41         C  0.20966673  0.29841163  0.64708113     0.77100
C42         C  0.20631274  0.42262213  0.65154798     0.78200
C43         C  0.08514693  0.29379939  0.65007377     0.77300
C44         C  0.00094168  0.99958485  0.79022742     0.45600
H45         H  0.00201451  0.99971243  0.77494284    -0.03400
C46         C  0.99880930  0.99884841  0.82608994     0.45600
H47         H  0.99759888  0.99862497  0.84133152    -0.03400
C48         C  0.46210821  0.48305960  0.79787623    -0.17100
C49         C  0.01667149  0.47717611  0.79898293    -0.16900
C50         C  0.02238793  0.03811776  0.79879622    -0.17300
C51         C  0.46043078  0.48260351  0.81674064    -0.17200
C52         C  0.01554228  0.47622812  0.81786681    -0.16800
C53         C  0.02235865  0.03805948  0.81771507    -0.17100
C54         C  0.16655824  0.33252221  0.86417316     0.45600
H55         H  0.16629544  0.33177033  0.84890692    -0.03400
C56         C  0.16767689  0.33494780  0.89999519     0.45600
H57         H  0.16791135  0.33568537  0.91527645    -0.03400
C58         C  0.14262646  0.34777416  0.87257456    -0.17100
C59         C  0.15197392  0.29391706  0.87339217    -0.16900
C60         C  0.20557739  0.35740092  0.87243519    -0.17300
C61         C  0.14415157  0.34961390  0.89146930    -0.17200
C62         C  0.15224467  0.29581533  0.89232856    -0.16800
C63         C  0.20574200  0.35770774  0.89136405    -0.17100
C64         C  0.33361520  0.16553838  0.12279326     0.45600
H65         H  0.33548116  0.16672543  0.10752337    -0.03400
C66         C  0.32945042  0.16356681  0.15855705     0.45600
H67         H  0.32767957  0.16295136  0.17380597    -0.03400
C68         C  0.29420774  0.14807493  0.12989132    -0.17100
C69         C  0.34930482  0.14304473  0.13148583    -0.16900
C70         C  0.35420586  0.20364502  0.13180907    -0.17300
C71         C  0.29166697  0.14799570  0.14879456    -0.17200
C72         C  0.34641214  0.14073364  0.15039772    -0.16800
C73         C  0.35251445  0.20319913  0.15061160    -0.17100
C74         C  0.49825750  0.49921913  0.19784840     0.45600
H75         H  0.49643100  0.49864991  0.18260978    -0.03400
C76         C  0.50248764  0.50161705  0.23367012     0.45600
H77         H  0.00455455  0.50309239  0.24893360    -0.03400
C78         C  0.47836802  0.01799505  0.20703534    -0.17100
C79         C  0.48046383  0.46019529  0.20700625    -0.16900
C80         C  0.03828924  0.02063442  0.20555260    -0.17300
C81         C  0.48055193  0.01869654  0.22583344    -0.17200
C82         C  0.48413608  0.46211258  0.22597530    -0.22500
C83         C  0.03987741  0.02178466  0.22436747    -0.17100
Zn84       Zn  0.35763981  0.21688898  0.35461631     1.49700
Zn85       Zn  0.33370211  0.16507589  0.31923828     1.49400
Zn86       Zn  0.35822872  0.13988457  0.35531816     1.49100
Zn87       Zn  0.28070648  0.13911646  0.35315463     1.49500
O88         O  0.33270518  0.16530131  0.34579799    -1.84000
O89         O  0.37662250  0.25371899  0.33340645    -0.74600
O90         O  0.35904416  0.13888493  0.30995093    -0.74400
O91         O  0.40078797  0.17391562  0.37170802    -0.74000
O92         O  0.36050863  0.21624894  0.30923654    -0.74600
O93         O  0.40093320  0.22746808  0.37094183    -0.74200
O94         O  0.37706869  0.12050595  0.33451595    -0.74800
O95         O  0.27101508  0.09767601  0.37036877    -0.74200
O96         O  0.28345038  0.13936337  0.30808175    -0.75000
O97         O  0.32432808  0.09820231  0.37204169    -0.74400
O98         O  0.24511138  0.11810950  0.33157618    -0.74800
O99         O  0.26902077  0.17291634  0.36786345    -0.74700
O100        O  0.32274535  0.22531758  0.37040790    -0.74500
C101        C  0.37603991  0.24876966  0.31605939     0.77300
C102        C  0.37490609  0.12265240  0.31709033     0.77800
C103        C  0.41411858  0.20758003  0.37675863     0.76700
C104        C  0.29100233  0.08540466  0.37699955     0.77100
C105        C  0.25082691  0.12140065  0.31430167     0.78200
C106        C  0.28870431  0.20549821  0.37438626     0.77300
Zn107      Zn  0.04949403  0.02150199  0.00197168     1.49700
Zn108      Zn  0.47460161  0.02519976  0.00288651     1.49400
Zn109      Zn  0.47120465  0.44641045  0.00424558     1.49100
Zn110      Zn  0.50099624  0.00031639  0.03836453     1.49500
O111        O  0.49914370  0.49848227  0.01174642    -1.84000
O112        O  0.05936170  0.06480552  0.98553767    -0.74600
O113        O  0.43333586  0.49262095  0.98551184    -0.74400
O114        O  0.00279881  0.43272130  0.98919451    -0.74000
O115        O  0.00949001  0.07027815  0.98819476    -0.74600
O116        O  0.05672042  0.48452100  0.98697277    -0.74200
O117        O  0.42925104  0.43751794  0.98758453    -0.74800
O118        O  0.47845509  0.44976519  0.04959817    -0.74200
O119        O  0.45342416  0.04100326  0.02395754    -0.75000
O120        O  0.45210645  0.41163975  0.02605229    -0.74400
O121        O  0.47222394  0.02276232  0.04835016    -0.74800
O122        O  0.05269330  0.03016877  0.04739206    -0.74700
O123        O  0.08750049  0.04182610  0.02250711    -0.74500
C124        C  0.04161578  0.08155986  0.98176191     0.77300
C125        C  0.41835756  0.45858473  0.98077710     0.77800
C126        C  0.03553286  0.45032593  0.98306399     0.76700
C127        C  0.45855796  0.41712204  0.04323775     0.77100
C128        C  0.45471940  0.03740607  0.04131473     0.78200
C129        C  0.08414441  0.04428694  0.03980093     0.77300
C130        C  0.07399795  0.03691206  0.23542525    -0.19700
C131        C  0.09456586  0.07483196  0.23999275     0.36500
C132        C  0.12432747  0.08715787  0.25222883    -0.25700
C133        C  0.13331089  0.06198869  0.26020804     0.02900
C134        C  0.11311223  0.02410982  0.25546116     0.27700
C135        C  0.08330687  0.01184931  0.24322303    -0.24800
N136        N  0.08447982  0.10061970  0.23285786    -0.82200
H137        H  0.13984132  0.11630449  0.25593500     0.13500
C138        C  0.16328881  0.07561618  0.27394619     0.02900
N139        N  0.12273490  0.99832464  0.26327684    -0.80800
H140        H  0.06678818  0.98254020  0.24001944     0.18400
C141        C  0.15458098  0.06834877  0.29263187    -0.25600
C142        C  0.18228680  0.08274603  0.30622411     0.36400
C143        C  0.21967054  0.10460166  0.30086604    -0.19700
C144        C  0.22797281  0.11076677  0.28194886    -0.24900
C145        C  0.20022152  0.09651353  0.26849765     0.27800
H146        H  0.12592463  0.05201251  0.29661725     0.13500
N147        N  0.17236110  0.07517052  0.32529571    -0.82200
H148        H  0.25632546  0.12702280  0.27751660     0.18400
N149        N  0.20930894  0.10323698  0.24929683    -0.80800
H150        H  0.14408000  0.05688172  0.32665998     0.34000
H151        H  0.17749327  0.10008036  0.33144488     0.38500
H152        H  0.23780811  0.11929651  0.24754333     0.34000
H153        H  0.20119285  0.07759869  0.24304125     0.30700
H154        H  0.10498868  0.97144935  0.25843381     0.34000
H155        H  0.14906063  0.00559914  0.25856740     0.30700
H156        H  0.10733086  0.12156148  0.22601731     0.38500
H157        H  0.07878410  0.11290840  0.24399290     0.34000
C158        C  0.47030389  0.43005546  0.23889463    -0.19700
C159        C  0.47858495  0.40092378  0.23726804     0.36500
C160        C  0.46282902  0.37122165  0.24970965    -0.25700
C161        C  0.43998227  0.37038179  0.26403789     0.02900
C162        C  0.43258141  0.39971974  0.26596050     0.27700
C163        C  0.44826876  0.42937667  0.25358977    -0.24800
N164        N  0.50412620  0.40129300  0.22397924    -0.82200
H165        H  0.46923192  0.34904267  0.24848141     0.13500
C166        C  0.42446151  0.33910889  0.27724950     0.02900
N167        N  0.40884764  0.39908465  0.28040724    -0.80800
H168        H  0.44296001  0.45206041  0.25542984     0.18400
C169        C  0.43292431  0.34629745  0.29602793    -0.25600
C170        C  0.41762639  0.31761660  0.30910693     0.36400
C171        C  0.39341156  0.28077961  0.30318753    -0.19700
C172        C  0.38546902  0.27384289  0.28427474    -0.24900
C173        C  0.40035782  0.30257625  0.27133436     0.27800
H174        H  0.45159489  0.37452059  0.30047370     0.13500
N175        N  0.42676980  0.32593489  0.32824769    -0.82200
H176        H  0.36674948  0.24589344  0.27950540     0.18400
N177        N  0.39001275  0.29501485  0.25229225    -0.80800
H178        H  0.44382436  0.35449572  0.33024916     0.34000
H179        H  0.44215705  0.31352719  0.33216498     0.38500
H180        H  0.37281648  0.26654289  0.25008985     0.34000
H181        H  0.37423483  0.30746221  0.24932681     0.30700
H182        H  0.40632963  0.42288115  0.27997773     0.34000
H183        H  0.38256461  0.37651654  0.27792441     0.30700
H184        H  0.51682819  0.42597697  0.21658645     0.38500
H185        H  0.48930526  0.37968634  0.21463826     0.34000
C186        C  0.39049476  0.10608082  0.30438289    -0.19700
C187        C  0.42233204  0.10389896  0.30860052     0.36500
C188        C  0.43730757  0.09089281  0.29510794    -0.25700
C189        C  0.42078538  0.07959314  0.27771126     0.02900
C190        C  0.38890339  0.08138938  0.27356356     0.27700
C191        C  0.37410779  0.09454265  0.28691118    -0.24800
N192        N  0.44001760  0.11591607  0.32622755    -0.82200
H193        H  0.46172922  0.08915998  0.29819703     0.13500
C194        C  0.43621245  0.06467132  0.26404819     0.02900
N195        N  0.37189173  0.07009957  0.25572755    -0.80800
H196        H  0.34964446  0.09602177  0.28357215     0.18400
C197        C  0.41449094  0.02783415  0.25814019    -0.25600
C198        C  0.42743532  0.01239054  0.24508509     0.36400
C199        C  0.46347237  0.03429282  0.23802253    -0.19700
C200        C  0.48498214  0.07132386  0.24367145    -0.24900
C201        C  0.47160238  0.08690205  0.25656985     0.27800
H202        H  0.38715114  0.01084560  0.26379761     0.13500
N203        N  0.40316694  0.47458209  0.23943530    -0.82200
H204        H  0.01232300  0.08801544  0.23802477     0.18400
N205        N  0.49362959  0.12509854  0.26206104    -0.80800
H206        H  0.38015579  0.47328440  0.23306075     0.34000
H207        H  0.41546446  0.46561845  0.22979039     0.38500
H208        H  0.01901646  0.13750083  0.25530618     0.34000
H209        H  0.47999416  0.13905872  0.25769813     0.30700
H210        H  0.34848680  0.07293243  0.25489979     0.34000
H211        H  0.39055260  0.08823642  0.24601836     0.30700
H212        H  0.42258268  0.09685950  0.33600195     0.38500
H213        H  0.46435582  0.11469923  0.32658761     0.34000
C214        C  0.37142248  0.23742252  0.12043403    -0.19700
C215        C  0.40288727  0.24622589  0.10991255     0.36500
C216        C  0.41652427  0.27635585  0.09777382    -0.25700
C217        C  0.39894284  0.29734865  0.09594810     0.02900
C218        C  0.36738545  0.28851380  0.10642086     0.27700
C219        C  0.35370254  0.25830185  0.11852744    -0.24800
N220        N  0.42038845  0.22411933  0.11140367    -0.82200
H221        H  0.44067101  0.28332051  0.08954868     0.13500
C222        C  0.41368398  0.32814702  0.08269393     0.02900
N223        N  0.34911151  0.30982304  0.10442887    -0.80800
H224        H  0.32864804  0.25039774  0.12611901     0.18400
C225        C  0.39796518  0.32215531  0.06514097    -0.25600
C226        C  0.41236410  0.35028737  0.05178804     0.36400
C227        C  0.44286854  0.38544062  0.05632653    -0.19700
C228        C  0.45822405  0.39112779  0.07412236    -0.24900
C229        C  0.44397270  0.36278822  0.08731293     0.27800
H230        H  0.37467958  0.29517939  0.06179591     0.13500
N231        N  0.39563404  0.34327901  0.03385819    -0.82200
H232        H  0.48160446  0.41778569  0.07778807     0.18400
N233        N  0.46022292  0.36884131  0.10533987    -0.80800
H234        H  0.37187216  0.31713776  0.03338238     0.34000
H235        H  0.41405979  0.34208958  0.02457178     0.38500
H236        H  0.48257380  0.39581353  0.10651887     0.34000
H237        H  0.44056521  0.36671014  0.11485748     0.30700
H238        H  0.32603728  0.29937824  0.11298216     0.34000
H239        H  0.36726084  0.33679147  0.10901392     0.30700
H240        H  0.43135319  0.22798917  0.12466931     0.38500
H241        H  0.44262273  0.23364521  0.10234307     0.34000
C242        C  0.26296058  0.13361637  0.11666662    -0.19700
C243        C  0.23451546  0.09589720  0.11610811     0.36500
C244        C  0.20726003  0.08438133  0.10253213    -0.25700
C245        C  0.20769956  0.10927560  0.08947475     0.02900
C246        C  0.23574001  0.14667134  0.08991966     0.27700
C247        C  0.26326123  0.15843259  0.10346278    -0.24800
N248        N  0.23292006  0.06813880  0.12842028    -0.82200
H249        H  0.18559408  0.05555056  0.10205962     0.13500
C250        C  0.17801941  0.09556078  0.07562069     0.02900
N251        N  0.23606178  0.17242074  0.07664323    -0.80800
H252        H  0.28507295  0.18719427  0.10379329     0.18400
C253        C  0.14798672  0.10081770  0.07869854    -0.25600
C254        C  0.11756257  0.08531133  0.06676931     0.36400
C255        C  0.11724166  0.06392529  0.05153766    -0.19700
C256        C  0.14812341  0.06003160  0.04805044    -0.24900
C257        C  0.17857200  0.07560287  0.06005442     0.27800
H258        H  0.14806239  0.11650142  0.09065107     0.13500
N259        N  0.08696829  0.09115802  0.07005774    -0.82200
H260        H  0.14795515  0.04380699  0.03631920     0.18400
N261        N  0.20966129  0.07056953  0.05681134    -0.80800
H262        H  0.09148501  0.10729906  0.08186954     0.34000
H263        H  0.08553262  0.10650697  0.05902697     0.38500
H264        H  0.20562282  0.05490600  0.04486788     0.34000
H265        H  0.23250528  0.09675005  0.05439864     0.30700
H266        H  0.25843386  0.19899720  0.07897971     0.34000
H267        H  0.24008184  0.16408192  0.06368267     0.30700
H268        H  0.25509950  0.07895514  0.13745509     0.38500
H269        H  0.20924859  0.05883627  0.13644927     0.34000
C270        C  0.36415017  0.12482692  0.11932497    -0.19700
C271        C  0.40098465  0.13203066  0.12021450     0.36500
C272        C  0.41316818  0.11579713  0.10713668    -0.25700
C273        C  0.38996044  0.09343418  0.09298313     0.02900
C274        C  0.35339307  0.08603135  0.09204505     0.27700
C275        C  0.34085921  0.10179995  0.10523859    -0.24800
N276        N  0.42744569  0.15710958  0.13330830    -0.82200
H277        H  0.44141697  0.12158706  0.10768511     0.13500
C278        C  0.40470694  0.07850663  0.07904363     0.02900
N279        N  0.32923387  0.06258080  0.07771840    -0.80800
H280        H  0.31272928  0.09633211  0.10447995     0.18400
C281        C  0.40136307  0.04368966  0.08191208    -0.25600
C282        C  0.41670730  0.02933056  0.06945789     0.36400
C283        C  0.43563154  0.05032723  0.05381249    -0.19700
C284        C  0.43802109  0.08478465  0.05070721    -0.24900
C285        C  0.42299295  0.09929115  0.06332437     0.27800
H286        H  0.38712100  0.02794202  0.09403117     0.13500
N287        N  0.41325710  0.49372252  0.07268755    -0.82200
H288        H  0.45273793  0.10093420  0.03877374     0.18400
N289        N  0.42714938  0.13544881  0.06058666    -0.80800
H290        H  0.39884983  0.48213643  0.08486681     0.34000
H291        H  0.39734202  0.47610951  0.06199934     0.38500
H292        H  0.44193928  0.14742871  0.04854851     0.34000
H293        H  0.40091171  0.13203884  0.05862107     0.30700
H294        H  0.30304141  0.05958108  0.07913743     0.34000
H295        H  0.33957965  0.07597015  0.06516904     0.30700
H296        H  0.41690584  0.17051327  0.14121488     0.38500
H297        H  0.43392233  0.14146371  0.14222445     0.34000
C298        C  0.35842710  0.11855453  0.16173258    -0.19700
C299        C  0.34783417  0.08113466  0.15746668     0.36500
C300        C  0.36663889  0.06481733  0.16552171    -0.25700
C301        C  0.39446784  0.08369827  0.17862095     0.02900
C302        C  0.40242584  0.11951352  0.18436623     0.27700
C303        C  0.38436353  0.13655613  0.17583014    -0.24800
N304        N  0.31753142  0.05829757  0.14549303    -0.82200
H305        H  0.35972011  0.03710974  0.16118526     0.13500
C306        C  0.41572981  0.06598146  0.18550128     0.02900
N307        N  0.42919579  0.13864022  0.19861316    -0.80800
H308        H  0.39170753  0.16459877  0.17967339     0.18400
C309        C  0.45439237  0.08571302  0.18457305    -0.25600
C310        C  0.47540952  0.06965427  0.19037518     0.36400
C311        C  0.45755124  0.03300340  0.19703513    -0.19700
C312        C  0.41898615  0.01259818  0.19706838    -0.24900
C313        C  0.39786868  0.02887435  0.19183522     0.27800
H314        H  0.46825151  0.11371633  0.17917866     0.13500
N315        N  0.01484298  0.09049798  0.18966061    -0.82200
H316        H  0.40531163  0.48413081  0.20158113     0.18400
N317        N  0.35841955  0.00816208  0.19340141    -0.80800
H318        H  0.02385854  0.11746788  0.18499919     0.34000
H319        H  0.02293806  0.07775300  0.17974474     0.38500
H320        H  0.34970000  0.48132288  0.19810831     0.34000
H321        H  0.35084323  0.02137331  0.20331079     0.30700
H322        H  0.43201228  0.16472171  0.20114274     0.34000
H323        H  0.41909962  0.12331836  0.21071723     0.30700
H324        H  0.30435619  0.07233141  0.14084993     0.38500
H325        H  0.32788621  0.05130979  0.13402334     0.34000
C326        C  0.07240369  0.03858158  0.19428530    -0.19700
C327        C  0.09081901  0.01929245  0.18927109     0.36500
C328        C  0.12629138  0.03886188  0.18156442    -0.25700
C329        C  0.14496173  0.07778011  0.18005115     0.02900
C330        C  0.12650412  0.09706199  0.18530186     0.27700
C331        C  0.09020545  0.07710188  0.19187102    -0.24800
N332        N  0.07421537  0.98024234  0.19279530    -0.82200
H333        H  0.14000426  0.02379129  0.17735745     0.13500
C334        C  0.18385690  0.09791047  0.17329643     0.02900
N335        N  0.14520189  0.13695389  0.18480777    -0.80800
H336        H  0.07674977  0.09210098  0.19642269     0.18400
C337        C  0.19407276  0.12544459  0.15981382    -0.25600
C338        C  0.23034133  0.14568095  0.15345930     0.36400
C339        C  0.25618323  0.13480788  0.15875649    -0.19700
C340        C  0.24659892  0.10825629  0.17268386    -0.24900
C341        C  0.21106488  0.09057351  0.18044281     0.27800
H342        H  0.17388618  0.13199610  0.15438883     0.13500
N343        N  0.23997687  0.17736166  0.14195578    -0.82200
H344        H  0.26661942  0.10066544  0.17722090     0.18400
N345        N  0.20255794  0.06531805  0.19554644    -0.80800
H346        H  0.23377804  0.19527100  0.14925411     0.34000
H347        H  0.26835291  0.19262325  0.13983538     0.38500
H348        H  0.22560306  0.06322730  0.19922257     0.34000
H349        H  0.19635000  0.07670913  0.20689396     0.30700
H350        H  0.12776600  0.14676061  0.18910460     0.34000
H351        H  0.16683676  0.14684188  0.19431386     0.30700
H352        H  0.07296309  0.47682104  0.20701968     0.38500
H353        H  0.09092672  0.47003752  0.18789292     0.34000
C354        C  0.36852936  0.23814440  0.16161619    -0.19700
C355        C  0.40626724  0.25793918  0.16664938     0.36500
C356        C  0.42155240  0.29427175  0.17358942    -0.25700
C357        C  0.40045712  0.31186732  0.17532857     0.02900
C358        C  0.36289461  0.29202394  0.17033941     0.27700
C359        C  0.34713768  0.25519922  0.16403161    -0.24800
N360        N  0.43018300  0.24268515  0.16441226    -0.82200
H361        H  0.45044337  0.30917115  0.17738290     0.13500
C362        C  0.41845510  0.35106670  0.18212479     0.02900
N363        N  0.34111352  0.30981008  0.17065936    -0.80800
H364        H  0.31846251  0.24064064  0.15987071     0.18400
C365        C  0.45064882  0.37858196  0.17358900    -0.25600
C366        C  0.47038406  0.41490946  0.18081059     0.36400
C367        C  0.45780766  0.42422549  0.19686189    -0.19700
C368        C  0.42390628  0.39748735  0.20434774    -0.24900
C369        C  0.40498706  0.36098211  0.19758789     0.27800
H370        H  0.46109784  0.37156259  0.16150931     0.13500
N371        N  0.50373850  0.44162907  0.17210543    -0.82200
H372        H  0.41274319  0.40438574  0.21616705     0.18400
N373        N  0.37324722  0.33358378  0.20717770    -0.80800
H374        H  0.52121528  0.43045056  0.17138712     0.34000
H375        H  0.49735033  0.44520932  0.15862890     0.38500
H376        H  0.38123227  0.33270723  0.22068452     0.34000
H377        H  0.35384852  0.34242270  0.20757207     0.30700
H378        H  0.33147682  0.30919623  0.15731162     0.34000
H379        H  0.31828778  0.29420613  0.17906647     0.30700
H380        H  0.41598008  0.21584123  0.15910542     0.38500
H381        H  0.43940316  0.24057459  0.17748758     0.34000
C382        C  0.38838627  0.44381954  0.96671696    -0.19700
C383        C  0.36761543  0.40553021  0.96213571     0.36500
C384        C  0.33949013  0.39358698  0.94887858    -0.25700
C385        C  0.33211780  0.41886439  0.93977887     0.02900
C386        C  0.35317253  0.45697046  0.94393157     0.27700
C387        C  0.38082373  0.46899936  0.95741251    -0.24800
N388        N  0.37458322  0.37871996  0.97100928    -0.82200
H389        H  0.32296743  0.36426828  0.94567949     0.13500
C390        C  0.30105602  0.40476349  0.92656556     0.02900
N391        N  0.34635774  0.48327309  0.93440404    -0.80800
H392        H  0.39674047  0.49838290  0.96052558     0.18400
C393        C  0.27222879  0.41191330  0.92994880    -0.25600
C394        C  0.24156701  0.39803394  0.91823365     0.36400
C395        C  0.23929614  0.37572219  0.90306716    -0.19700
C396        C  0.26815959  0.36852223  0.89969313    -0.24900
C397        C  0.29938925  0.38342857  0.91109878     0.27800
H398        H  0.27360281  0.42823550  0.94188522     0.13500
N399        N  0.21282898  0.40662449  0.92166011    -0.82200
H400        H  0.26608842  0.35076460  0.88828583     0.18400
N401        N  0.32935765  0.37699009  0.90709228    -0.80800
H402        H  0.21843071  0.42277155  0.93355776     0.34000
H403        H  0.21284067  0.42298529  0.91077704     0.38500
H404        H  0.32374063  0.36073594  0.89522793     0.34000
H405        H  0.35243549  0.40269655  0.90414618     0.30700
H406        H  0.36412396  0.51025206  0.93910620     0.34000
H407        H  0.35249791  0.48263721  0.92051603     0.30700
H408        H  0.39982791  0.38285356  0.96613027     0.38500
H409        H  0.35495895  0.35173625  0.96707794     0.34000
C410        C  0.05835265  0.11402098  0.96911017    -0.19700
C411        C  0.04538030  0.13962377  0.96790836     0.36500
C412        C  0.06068979  0.16824145  0.95479101    -0.25700
C413        C  0.08891896  0.17220853  0.94303591     0.02900
C414        C  0.10233393  0.14722838  0.94437880     0.27700
C415        C  0.08709057  0.11857621  0.95743586    -0.24800
N416        N  0.01706637  0.13684965  0.98006800    -0.82200
H417        H  0.05091080  0.18792166  0.95385476     0.13500
C418        C  0.10483194  0.20324081  0.92966482     0.02900
N419        N  0.13104662  0.15079076  0.93227742    -0.80800
H420        H  0.09719141  0.09914865  0.95816042     0.18400
C421        C  0.14187856  0.23087783  0.93149036    -0.25600
C422        C  0.15792974  0.26103564  0.91931179     0.36400
C423        C  0.13649007  0.26345829  0.90498415    -0.19700
C424        C  0.09936630  0.23589440  0.90318292    -0.24900
C425        C  0.08332753  0.20566479  0.91535877     0.27800
H426        H  0.15820973  0.22898260  0.94256491     0.13500
N427        N  0.19591758  0.28919324  0.92140240    -0.82200
H428        H  0.08286081  0.23816990  0.89231744     0.18400
N429        N  0.04536621  0.17743054  0.91328781    -0.80800
H430        H  0.20772694  0.28355302  0.93273247     0.34000
H431        H  0.21002630  0.28813389  0.90977282     0.38500
H432        H  0.03336898  0.18348785  0.90218029     0.34000
H433        H  0.04473844  0.15259434  0.91003070     0.30700
H434        H  0.13792769  0.13030247  0.93505568     0.34000
H435        H  0.12061919  0.14603731  0.91885611     0.30700
H436        H  0.52788227  0.14213258  0.99341787     0.38500
H437        H  0.51036658  0.15741260  0.97713516     0.34000
C438        C  0.04906588  0.43106497  0.97074945    -0.19700
C439        C  0.02473508  0.39966238  0.96003890     0.36500
C440        C  0.03923972  0.38522034  0.94709808    -0.25700
C441        C  0.07730388  0.40062925  0.94498095     0.02900
C442        C  0.10156268  0.43045091  0.95633744     0.27700
C443        C  0.08724185  0.44570552  0.96888954    -0.24800
N444        N  0.98547388  0.38330638  0.96175779    -0.82200
H445        H  0.02077557  0.36216329  0.93838422     0.13500
C446        C  0.09164926  0.38635987  0.93035690     0.02900
N447        N  0.14067266  0.44518702  0.95497500    -0.80800
H448        H  0.10605543  0.46923759  0.97724642     0.18400
C449        C  0.11448077  0.41093798  0.91680440    -0.25600
C450        C  0.13141610  0.40001084  0.90358691     0.36400
C451        C  0.12441394  0.36288377  0.90354352    -0.19700
C452        C  0.10036398  0.33792142  0.91672226    -0.24900
C453        C  0.08394243  0.34925844  0.93016323     0.27800
H454        H  0.12029119  0.43945517  0.91691103     0.13500
N455        N  0.15718294  0.42815014  0.89145142    -0.82200
H456        H  0.09505720  0.30957457  0.91675719     0.18400
N457        N  0.06033288  0.32358330  0.94388335    -0.80800
H458        H  0.14237907  0.43608862  0.88279695     0.34000
H459        H  0.17058580  0.41824343  0.88317757     0.38500
H460        H  0.05738671  0.29733854  0.94173412     0.34000
H461        H  0.07332736  0.33292554  0.95663954     0.30700
H462        H  0.15486672  0.96735550  0.96414766     0.34000
H463        H  0.14615454  0.42421724  0.95890958     0.30700
H464        H  0.47805431  0.36998807  0.97450521     0.38500
H465        H  0.47184239  0.36248460  0.95188286     0.34000
C466        C  0.12033103  0.35976530  0.86159522    -0.19700
C467        C  0.08196617  0.34453851  0.86451160     0.36500
C468        C  0.06413708  0.36270770  0.85732984    -0.25700
C469        C  0.08336161  0.39560432  0.84723228     0.02900
C470        C  0.12093549  0.40936977  0.84320403     0.27700
C471        C  0.13891673  0.39095545  0.85021686    -0.24800
N472        N  0.06013309  0.31072637  0.87456442    -0.82200
H473        H  0.03507280  0.35150869  0.86008889     0.13500
C474        C  0.06365727  0.41524609  0.84107532     0.02900
N475        N  0.14082838  0.44246122  0.83240405    -0.80800
H476        H  0.16816970  0.40248388  0.84788586     0.18400
C477        C  0.07574415  0.45173138  0.84709271    -0.25600
C478        C  0.05836456  0.47146458  0.84105057     0.36400
C479        C  0.02851125  0.45435033  0.82864295    -0.19700
C480        C  0.01487546  0.41699367  0.82374866    -0.24900
C481        C  0.03253410  0.39753882  0.82949930     0.27800
H482        H  0.09912036  0.46496292  0.85635738     0.13500
N483        N  0.07213458  0.00925537  0.84672621    -0.82200
H484        H  0.99166367  0.40371464  0.81438389     0.18400
N485        N  0.01988965  0.36037022  0.82303257    -0.80800
H486        H  0.09562249  0.01839625  0.85493650     0.34000
H487        H  0.05216937  0.00973138  0.85513461     0.38500
H488        H  0.99672771  0.35139617  0.81459108     0.34000
H489        H  0.04064718  0.36103783  0.81478262     0.30700
H490        H  0.16826105  0.44911446  0.83083030     0.34000
H491        H  0.12912224  0.43673232  0.81925206     0.30700
H492        H  0.07567390  0.29890102  0.87900261     0.38500
H493        H  0.04997069  0.31717580  0.88628526     0.34000
C494        C  0.04408729  0.07232685  0.82879057    -0.19700
C495        C  0.08299899  0.09206347  0.82825844     0.36500
C496        C  0.10230022  0.12803163  0.83581252    -0.25700
C497        C  0.08351914  0.14416254  0.84423849     0.02900
C498        C  0.04494585  0.12284571  0.84641249     0.27700
C499        C  0.02556731  0.08706951  0.83862245    -0.24800
N500        N  0.10279222  0.07514687  0.82061597    -0.82200
H501        H  0.13203983  0.14392035  0.83473734     0.13500
C502        C  0.10428117  0.18363285  0.85034578     0.02900
N503        N  0.02565479  0.13792179  0.85630064    -0.80800
H504        H  0.49578723  0.07130758  0.83948996     0.18400
C505        C  0.09568342  0.20935674  0.84261309    -0.25600
C506        C  0.11249650  0.24632083  0.84898867     0.36400
C507        C  0.13879748  0.25788913  0.86331287    -0.19700
C508        C  0.14980846  0.23290637  0.86973208    -0.24900
C509        C  0.13213383  0.19570961  0.86382099     0.27800
H510        H  0.07491092  0.20017192  0.83190188     0.13500
N511        N  0.10203224  0.27155479  0.84132180    -0.82200
H512        H  0.17101151  0.24197366  0.88020329     0.18400
N513        N  0.14136956  0.16986463  0.87194870    -0.80800
H514        H  0.08327723  0.25895911  0.83052827     0.34000
H515        H  0.08809446  0.27728239  0.85153261     0.38500
H516        H  0.16228119  0.18315786  0.88174464     0.34000
H517        H  0.11817722  0.15007972  0.87905819     0.30700
H518        H  0.49742926  0.11879818  0.85663723     0.34000
H519        H  0.03492225  0.14203340  0.86993221     0.30700
H520        H  0.09787860  0.07183004  0.80650833     0.38500
H521        H  0.13118362  0.09267129  0.82217927     0.34000
C522        C  0.23995664  0.37908469  0.86130418    -0.19700
C523        C  0.26428555  0.41762792  0.86433732     0.36500
C524        C  0.30004179  0.43470652  0.85716149    -0.25700
C525        C  0.31212504  0.41512602  0.84617577     0.02900
C526        C  0.28696038  0.37758822  0.84177215     0.27700
C527        C  0.25128034  0.35989437  0.84950757    -0.24800
N528        N  0.25369336  0.44053686  0.87443952    -0.82200
H529        H  0.31875988  0.46363153  0.86042915     0.13500
C530        C  0.35123447  0.43418632  0.83962995     0.02900
N531        N  0.29791834  0.35747623  0.82964635    -0.80800
H532        H  0.23280683  0.33059502  0.84697082     0.18400
C533        C  0.37318539  0.41791835  0.84299839    -0.25600
C534        C  0.40972746  0.43431764  0.83656393     0.36400
C535        C  0.42486524  0.46795515  0.82676388    -0.19700
C536        C  0.40356193  0.48502891  0.82400569    -0.24900
C537        C  0.36692079  0.46849256  0.83022395     0.27800
H538        H  0.36155022  0.39199682  0.85048610     0.13500
N539        N  0.43070530  0.41583077  0.83897379    -0.82200
H540        H  0.41517362  0.51066248  0.81625504     0.18400
N541        N  0.34526915  0.48584793  0.82649917    -0.80800
H542        H  0.41500697  0.39048816  0.84569833     0.34000
H543        H  0.45282357  0.43229158  0.84768254     0.38500
H544        H  0.36090469  0.51092618  0.81953988     0.34000
H545        H  0.32391288  0.46836711  0.81761889     0.30700
H546        H  0.27635371  0.33026705  0.82779793     0.34000
H547        H  0.30317763  0.37024713  0.81676091     0.30700
H548        H  0.22605227  0.42581215  0.87807232     0.38500
H549        H  0.26927684  0.44916958  0.88654435     0.34000
C550        C  0.42997766  0.46709197  0.78532317    -0.19700
C551        C  0.42796290  0.48843645  0.77085560     0.36500
C552        C  0.39935799  0.47196496  0.75803678    -0.25700
C553        C  0.37243851  0.43448216  0.75950322     0.02900
C554        C  0.37402838  0.41291894  0.77403153     0.27700
C555        C  0.40309310  0.42944781  0.78678835    -0.24800
N556        N  0.45483534  0.02717728  0.76931091    -0.82200
H557        H  0.39795155  0.48859291  0.74692922     0.13500
C558        C  0.34183002  0.41909364  0.74615932     0.02900
N559        N  0.34614179  0.37455662  0.77576702    -0.80800
H560        H  0.40519469  0.41283311  0.79767364     0.18400
C561        C  0.33821804  0.39191025  0.73354771    -0.25600
C562        C  0.31011303  0.37806173  0.72020746     0.36400
C563        C  0.28517711  0.39171198  0.71969041    -0.19700
C564        C  0.28934122  0.41924702  0.73227447    -0.24900
C565        C  0.31715505  0.43276272  0.74561561     0.27800
H566        H  0.35766670  0.38190395  0.73399769     0.13500
N567        N  0.30707487  0.35059124  0.70716098    -0.82200
H568        H  0.27008394  0.42949510  0.73211138     0.18400
N569        N  0.32026165  0.46001556  0.75882382    -0.80800
H570        H  0.32731433  0.34336299  0.70959706     0.34000
H571        H  0.31232040  0.36269360  0.69411130     0.38500
H572        H  0.30001575  0.46728850  0.75653019     0.34000
H573        H  0.31513037  0.44772508  0.77182783     0.30700
H574        H  0.35145130  0.36267867  0.78719304     0.34000
H575        H  0.32115023  0.37365422  0.77834314     0.30700
H576        H  0.44106436  0.04235079  0.76971121     0.38500
H577        H  0.46756900  0.03145552  0.75648197     0.34000
C578        C  0.11703826  0.22011927  0.72210976    -0.19700
C579        C  0.14059201  0.21513275  0.73434329     0.36500
C580        C  0.12543664  0.18541322  0.74686510    -0.25700
C581        C  0.08738525  0.16062943  0.74747243     0.02900
C582        C  0.06397258  0.16517243  0.73509360     0.27700
C583        C  0.07896591  0.19507197  0.72272856    -0.24800
N584        N  0.17961810  0.24065254  0.73437065    -0.82200
H585        H  0.14329520  0.18192059  0.75646563     0.13500
C586        C  0.07225010  0.13023274  0.76125696     0.02900
N587        N  0.02507329  0.13913378  0.73501815    -0.80800
H588        H  0.06080422  0.19854491  0.71333496     0.18400
C589        C  0.04569217  0.12777940  0.77380772    -0.25600
C590        C  0.02904105  0.09842126  0.78633685     0.36400
C591        C  0.04036619  0.07147315  0.78686629    -0.19700
C592        C  0.06694729  0.07397998  0.77430993    -0.24900
C593        C  0.08306208  0.10307304  0.76153126     0.27800
H594        H  0.03693640  0.14831715  0.77346249     0.13500
N595        N  0.99905621  0.09562457  0.79715631    -0.82200
H596        H  0.07476287  0.05271624  0.77432837     0.18400
N597        N  0.10970173  0.10467754  0.74856252    -0.80800
H598        H  0.00986942  0.11764386  0.80655709     0.34000
H599        H  0.48578430  0.07094323  0.80456994     0.38500
H600        H  0.11472068  0.08269097  0.75065497     0.34000
H601        H  0.09821668  0.10103881  0.73541501     0.30700
H602        H  0.01167262  0.14642295  0.72512285     0.34000
H603        H  0.02147293  0.11330989  0.73106652     0.30700
H604        H  0.18375688  0.26643837  0.73877390     0.38500
H605        H  0.19292400  0.23258004  0.74394656     0.34000
C606        C  0.11224529  0.38843332  0.72514512    -0.19700
C607        C  0.12471679  0.42686733  0.72651649     0.36500
C608        C  0.10964012  0.43956797  0.73997514    -0.25700
C609        C  0.08239753  0.41477248  0.75199141     0.02900
C610        C  0.07016647  0.37652495  0.75081822     0.27700
C611        C  0.08506398  0.36368410  0.73731085    -0.24800
N612        N  0.15197311  0.45276596  0.71402363    -0.82200
H613        H  0.11851138  0.46889554  0.74084184     0.13500
C614        C  0.06559014  0.42926692  0.76502751     0.02900
N615        N  0.04280391  0.35102198  0.76338985    -0.80800
H616        H  0.07581610  0.33427771  0.73646540     0.18400
C617        C  0.02793991  0.41728433  0.76336316    -0.25600
C618        C  0.01153445  0.43243126  0.77450432     0.36400
C619        C  0.03301398  0.45980129  0.78753259    -0.19700
C620        C  0.07052812  0.47147721  0.78944302    -0.24900
C621        C  0.08710115  0.45634143  0.77829947     0.27800
H622        H  0.01140207  0.39662991  0.75311034     0.13500
N623        N  0.47301762  0.41980902  0.77268664    -0.82200
H624        H  0.08686333  0.99274718  0.79946565     0.18400
N625        N  0.12562531  0.46846562  0.78025092    -0.80800
H626        H  0.46794437  0.42448548  0.75914584     0.34000
H627        H  0.45848738  0.39119084  0.77503099     0.38500
H628        H  0.13738515  0.98851260  0.79062132     0.34000
H629        H  0.12782375  0.44563376  0.78452293     0.30700
H630        H  0.03680446  0.32383765  0.76068286     0.34000
H631        H  0.05412403  0.35760427  0.77662514     0.30700
H632        H  0.14036486  0.44683485  0.70084285     0.38500
H633        H  0.15832098  0.47993213  0.71708258     0.34000
C634        C  0.19673775  0.29663739  0.44969446    -0.19700
C635        C  0.21492766  0.31403456  0.43318608     0.36500
C636        C  0.22671274  0.29584695  0.42110002    -0.25700
C637        C  0.22112641  0.26059868  0.42509505     0.02900
C638        C  0.20245266  0.24245289  0.44126701     0.27700
C639        C  0.18980302  0.26036795  0.45324544    -0.24800
N640        N  0.22271976  0.35066245  0.42870519    -0.82200
H641        H  0.24125437  0.30982755  0.40866950     0.13500
C642        C  0.23716050  0.24445499  0.41257353     0.02900
N643        N  0.19735338  0.20648530  0.44568156    -0.80800
H644        H  0.17481239  0.24609748  0.46550528     0.18400
C645        C  0.27387358  0.25367695  0.41522733    -0.25600
C646        C  0.29133919  0.24136894  0.40289978     0.36400
C647        C  0.27169155  0.21988534  0.38743196    -0.19700
C648        C  0.23472511  0.21038642  0.38493246    -0.24900
C649        C  0.21730322  0.22270001  0.39732102     0.27800
H650        H  0.28892090  0.27063626  0.42696728     0.13500
N651        N  0.32861561  0.24992489  0.40625760    -0.82200
H652        H  0.21956112  0.19369837  0.37315185     0.18400
N653        N  0.17993979  0.21408141  0.39424455    -0.80800
H654        H  0.33910150  0.26614750  0.41813166     0.34000
H655        H  0.32807192  0.22491314  0.40887302     0.38500
H656        H  0.16945769  0.19839008  0.38221681     0.34000
H657        H  0.16395409  0.19730130  0.40506539     0.30700
H658        H  0.18384563  0.19733148  0.45829066     0.34000
H659        H  0.17997864  0.18773964  0.43572103     0.30700
H660        H  0.20989653  0.34949209  0.41617313     0.38500
H661        H  0.25115810  0.36706168  0.42678720     0.34000
C662        C  0.09237973  0.29855390  0.45484715    -0.19700
C663        C  0.06261592  0.30538119  0.45739468     0.36500
C664        C  0.03227751  0.28878035  0.44539269    -0.25700
C665        C  0.03166622  0.26711058  0.43045536     0.02900
C666        C  0.06156713  0.26125074  0.42752981     0.27700
C667        C  0.09129877  0.27657593  0.43987466    -0.24800
N668        N  0.06303240  0.33074512  0.47098066    -0.82200
H669        H  0.00959892  0.29401871  0.44731068     0.13500
C670        C  0.00057444  0.25223162  0.41727908     0.02900
N671        N  0.06207970  0.24068494  0.41170215    -0.80800
H672        H  0.11408531  0.27161450  0.43768322     0.18400
C673        C  0.00217914  0.27402067  0.40222444    -0.25600
C674        C  0.47435566  0.26002243  0.38871494     0.36400
C675        C  0.44462122  0.22337741  0.39028838    -0.19700
C676        C  0.44303150  0.20171499  0.40545874    -0.24900
C677        C  0.47052338  0.21597996  0.41911758     0.27800
H678        H  0.02548039  0.30185801  0.40092776     0.13500
N679        N  0.47649614  0.28258192  0.37327676    -0.82200
H680        H  0.41982789  0.17383617  0.40684478     0.18400
N681        N  0.46770270  0.19418579  0.43501992    -0.80800
H682        H  0.49996308  0.30887036  0.37425143     0.34000
H683        H  0.47961595  0.27009717  0.36143180     0.38500
H684        H  0.44351330  0.16840560  0.43446315     0.34000
H685        H  0.48954962  0.18880487  0.43469220     0.30700
H686        H  0.08665558  0.23993756  0.41121935     0.34000
H687        H  0.04089181  0.21324016  0.41318290     0.30700
H688        H  0.08808192  0.34457551  0.47796206     0.38500
H689        H  0.04246052  0.31536141  0.48056642     0.34000
C690        C  0.20039722  0.40845606  0.45575436    -0.19700
C691        C  0.18108737  0.42757047  0.45258708     0.36500
C692        C  0.19617347  0.45832293  0.44068907    -0.25700
C693        C  0.22955621  0.46929199  0.43149866     0.02900
C694        C  0.24879981  0.45003726  0.43480617     0.27700
C695        C  0.23423692  0.42030898  0.44712837    -0.24800
N696        N  0.14601770  0.41520997  0.46115476    -0.82200
H697        H  0.18153625  0.47328954  0.43825707     0.13500
C698        C  0.24392714  0.50023938  0.41808016     0.02900
N699        N  0.28253601  0.46007685  0.42524720    -0.80800
H700        H  0.24912098  0.40577578  0.44976920     0.18400
C701        C  0.28010274  0.02969297  0.42008203    -0.25600
C702        C  0.29621728  0.05759717  0.40674009     0.36400
C703        C  0.27528300  0.05641892  0.39125180    -0.19700
C704        C  0.23842152  0.02810504  0.38972818    -0.24900
C705        C  0.22268253  0.49956272  0.40282849     0.27800
H706        H  0.29607331  0.03053413  0.43200466     0.13500
N707        N  0.33354181  0.08732129  0.40898788    -0.82200
H708        H  0.22228323  0.02757960  0.37794438     0.18400
N709        N  0.18555140  0.46956093  0.40048252    -0.80800
H710        H  0.34514315  0.08377692  0.42102167     0.34000
H711        H  0.33280650  0.11194955  0.41065885     0.38500
H712        H  0.17371764  0.47340571  0.38861647     0.34000
H713        H  0.18670804  0.44524190  0.39844221     0.30700
H714        H  0.29329135  0.44327415  0.42935979     0.34000
H715        H  0.27623925  0.45477285  0.41125313     0.30700
H716        H  0.12773773  0.38924940  0.45552012     0.38500
H717        H  0.13572216  0.43274148  0.45769930     0.34000
C718        C  0.30387976  0.21154547  0.57044643    -0.19700
C719        C  0.32531614  0.23705618  0.58430044     0.36500
C720        C  0.30887669  0.25080561  0.59630959    -0.25700
C721        C  0.27143046  0.23942877  0.59481987     0.02900
C722        C  0.24996440  0.21443044  0.58076907     0.27700
C723        C  0.26650684  0.20071398  0.56863937    -0.24800
N724        N  0.36383555  0.24919344  0.58598270    -0.82200
H725        H  0.32532638  0.27056297  0.60691639     0.13500
C726        C  0.25531957  0.25401160  0.60822902     0.02900
N727        N  0.21142074  0.20250741  0.57918403    -0.80800
H728        H  0.25009151  0.18076176  0.55809895     0.18400
C729        C  0.23964430  0.27476642  0.60188586    -0.25600
C730        C  0.22438844  0.28948532  0.61414589     0.36400
C731        C  0.22542595  0.28368351  0.63336099    -0.19700
C732        C  0.24185863  0.26332330  0.63960968    -0.24900
C733        C  0.25659479  0.24825419  0.62724393     0.27800
H734        H  0.23929726  0.27943822  0.58723899     0.13500
N735        N  0.20807513  0.31027669  0.60701722    -0.82200
H736        H  0.24299433  0.25879414  0.65420707     0.18400
N737        N  0.27270328  0.22694034  0.63388270    -0.80800
H738        H  0.21222208  0.31416196  0.59282673     0.34000
H739        H  0.17959832  0.29411946  0.60884069     0.38500
H740        H  0.27174988  0.22552922  0.64824552     0.34000
H741        H  0.25653778  0.19976371  0.62903130     0.30700
H742        H  0.19967081  0.18416939  0.56810839     0.34000
H743        H  0.19844179  0.18759816  0.59106686     0.30700
H744        H  0.37665809  0.26519229  0.57438128     0.38500
H745        H  0.37530861  0.26678352  0.59734324     0.34000
C746        C  0.05350488  0.27721955  0.63706610    -0.19700
C747        C  0.01679099  0.26436792  0.64267964     0.36500
C748        C  0.48833432  0.24865114  0.62955039    -0.25700
C749        C  0.49591000  0.24651568  0.61094568     0.02900
C750        C  0.03239130  0.25991670  0.60521056     0.27700
C751        C  0.06074204  0.27489964  0.61831015    -0.24800
N752        N  0.00851177  0.26803183  0.66148886    -0.82200
H753        H  0.46012762  0.23878066  0.63373292     0.13500
C754        C  0.46535108  0.23095355  0.59753071     0.02900
N755        N  0.04042496  0.25821654  0.58611026    -0.80800
H756        H  0.08871410  0.28469879  0.61376638     0.18400
C757        C  0.46448912  0.25387461  0.58365823    -0.25600
C758        C  0.43520664  0.24075547  0.57116984     0.36400
C759        C  0.40624763  0.20341422  0.57251792    -0.19700
C760        C  0.40707448  0.18077537  0.58656697    -0.24900
C761        C  0.43670084  0.19391672  0.59887112     0.27800
H762        H  0.48632763  0.28257703  0.58285680     0.13500
N763        N  0.43502501  0.26678590  0.55822545    -0.82200
H764        H  0.38459949  0.15255546  0.58785788     0.18400
N765        N  0.43799582  0.16982987  0.61265602    -0.80800
H766        H  0.45680040  0.27411530  0.54907661     0.34000
H767        H  0.41074176  0.25554744  0.55057460     0.38500
H768        H  0.41468141  0.14340650  0.61178803     0.34000
H769        H  0.46065348  0.16653762  0.60974818     0.30700
H770        H  0.06874923  0.26960187  0.58412410     0.34000
H771        H  0.02807950  0.23021722  0.58236722     0.30700
H772        H  0.02042846  0.29640701  0.66432972     0.38500
H773        H  0.98013422  0.25664902  0.66328035     0.34000
C774        C  0.22040469  0.45572269  0.63938569    -0.19700
C775        C  0.24471142  0.49238950  0.64558590     0.36500
C776        C  0.25785067  0.52197210  0.63295512    -0.25700
C777        C  0.24726239  0.01538860  0.61428441     0.02900
C778        C  0.22289715  0.47937137  0.60824518     0.27700
C779        C  0.20959801  0.44993342  0.62075075    -0.24800
N780        N  0.25663183  0.49950302  0.66445290    -0.82200
H781        H  0.27715755  0.04988343  0.63730798     0.13500
C782        C  0.26413873  0.04595882  0.60084809     0.02900
N783        N  0.21192246  0.47274657  0.58922316    -0.80800
H784        H  0.19075233  0.42218141  0.61578143     0.18400
C785        C  0.29161595  0.04778516  0.58922289    -0.25600
C786        C  0.30749989  0.07526356  0.57566236     0.36400
C787        C  0.29473467  0.10066613  0.57335890    -0.19700
C788        C  0.26744031  0.09902304  0.58515211    -0.24900
C789        C  0.25184133  0.07171182  0.59887601     0.27800
H790        H  0.30093237  0.02785758  0.59091457     0.13500
N791        N  0.33712335  0.07798598  0.56461714    -0.82200
H792        H  0.25848417  0.11928021  0.58367419     0.18400
N793        N  0.22369300  0.06997896  0.61080613    -0.80800
H794        H  0.34295136  0.05698159  0.56795781     0.34000
H795        H  0.36064490  0.10305489  0.56786329     0.38500
H796        H  0.21799391  0.09114987  0.60764024     0.34000
H797        H  0.19955184  0.04489941  0.60816933     0.30700
H798        H  0.19390305  0.44449618  0.58683728     0.34000
H799        H  0.19642574  0.98640590  0.58651920     0.30700
H800        H  0.27305226  0.48748465  0.66679446     0.38500
H801        H  0.27348570  0.52798981  0.66676904     0.34000
C802        C  0.21051672  0.30063906  0.49133335    -0.19700
C803        C  0.19707304  0.27503050  0.50593579     0.36500
C804        C  0.21873263  0.26069158  0.51303535    -0.25700
C805        C  0.25352731  0.27117328  0.50564524     0.02900
C806        C  0.26744477  0.29736169  0.49131328     0.27700
C807        C  0.24611380  0.31232745  0.48455739    -0.24800
N808        N  0.16096131  0.26242871  0.51313122    -0.82200
H809        H  0.20798478  0.24059254  0.52408897     0.13500
C810        C  0.27458919  0.25374556  0.51277849     0.02900
N811        N  0.30255138  0.30762271  0.48323567    -0.80800
H812        H  0.25692052  0.33254185  0.47356260     0.18400
C813        C  0.26825513  0.21986496  0.50533161    -0.25600
C814        C  0.28464485  0.20040945  0.51307833     0.36400
C815        C  0.30827222  0.21549325  0.52847796    -0.19700
C816        C  0.31741212  0.25139229  0.53451807    -0.24900
C817        C  0.29981861  0.26996139  0.52735152     0.27800
H818        H  0.24928484  0.20788367  0.49387684     0.13500
N819        N  0.27641310  0.16506742  0.50564814    -0.82200
H820        H  0.33710830  0.26431962  0.54559064     0.18400
N821        N  0.30603975  0.30424472  0.53544337    -0.80800
H822        H  0.25921951  0.15838257  0.49414269     0.34000
H823        H  0.26144109  0.14516459  0.51556416     0.38500
H824        H  0.32426744  0.31168568  0.54656193     0.34000
H825        H  0.31887736  0.32515485  0.52563239     0.30700
H826        H  0.30826900  0.32632786  0.47245146     0.34000
H827        H  0.32283955  0.32165946  0.49321452     0.30700
H828        H  0.16349404  0.26863367  0.52718711     0.38500
H829        H  0.14577680  0.23356264  0.51166779     0.34000
C830        C  0.29406312  0.09407727  0.53163173    -0.19700
C831        C  0.25526314  0.07173102  0.53025026     0.36500
C832        C  0.23982037  0.03575229  0.52276697    -0.25700
C833        C  0.26144663  0.01925770  0.51871878     0.02900
C834        C  0.30024328  0.04179290  0.52068950     0.27700
C835        C  0.31589108  0.07924585  0.52587717    -0.24800
N836        N  0.23056235  0.08381521  0.53683295    -0.82200
H837        H  0.21033721  0.02035990  0.52063564     0.13500
C838        C  0.24325523  0.47916447  0.51233782     0.02900
N839        N  0.32409950  0.02656156  0.51865077    -0.80800
H840        H  0.34551733  0.09588781  0.52711401     0.18400
C841        C  0.26106294  0.46813308  0.49942865    -0.25600
C842        C  0.24507397  0.43129611  0.49323187     0.36400
C843        C  0.20781772  0.40627948  0.49701846    -0.19700
C844        C  0.19002212  0.41596472  0.51036861    -0.24900
C845        C  0.20805218  0.45141680  0.51881737     0.27800
H846        H  0.28739491  0.48806389  0.49376148     0.13500
N847        N  0.26652284  0.41908668  0.48308402    -0.82200
H848        H  0.16191612  0.39605691  0.51404547     0.18400
N849        N  0.19068311  0.45906361  0.53391563    -0.80800
H850        H  0.29366140  0.44071177  0.48162354     0.34000
H851        H  0.26763692  0.39849610  0.49083778     0.38500
H852        H  0.16525961  0.43578547  0.53696620     0.34000
H853        H  0.20739301  0.46430321  0.54551049     0.30700
H854        H  0.33812633  0.03015716  0.53107322     0.34000
H855        H  0.34364522  0.54182626  0.50856659     0.30700
H856        H  0.24468538  0.11044878  0.54249206     0.38500
H857        H  0.21551206  0.08484450  0.52558665     0.34000
C858        C  0.09444939  0.28934401  0.49656421    -0.19700
C859        C  0.07057640  0.25147982  0.49234455     0.36500
C860        C  0.03513607  0.23268209  0.50015976    -0.25700
C861        C  0.02313312  0.25092101  0.51216489     0.02900
C862        C  0.04832353  0.28756907  0.51786074     0.27700
C863        C  0.08387048  0.30643072  0.51003159    -0.24800
N864        N  0.08199490  0.23273562  0.47956752    -0.82200
H865        H  0.01622433  0.20414669  0.49628781     0.13500
C866        C  0.48382615  0.23167272  0.51815289     0.02900
N867        N  0.03719882  0.30583900  0.53107028    -0.80800
H868        H  0.10240861  0.33525369  0.51352078     0.18400
C869        C  0.47110209  0.20170224  0.53031749    -0.25600
C870        C  0.43447004  0.18349921  0.53663680     0.36400
C871        C  0.41020149  0.19625606  0.53117110    -0.19700
C872        C  0.42207771  0.22423204  0.51783547    -0.24900
C873        C  0.45866715  0.24206305  0.51125304     0.27800
H874        H  0.48997012  0.19272603  0.53503295     0.13500
N875        N  0.42189780  0.15232547  0.54879172    -0.82200
H876        H  0.40343736  0.23366420  0.51335038     0.18400
N877        N  0.47028047  0.27045526  0.49747985    -0.80800
H878        H  0.44332906  0.14727352  0.55204372     0.34000
H879        H  0.40228549  0.12900631  0.54161225     0.38500
H880        H  0.44809907  0.27351111  0.49319748     0.34000
H881        H  0.48924209  0.29565552  0.50356195     0.30700
H882        H  0.05865455  0.33283305  0.53359944     0.34000
H883        H  0.03205073  0.29140908  0.54347823     0.30700
H884        H  0.10473072  0.23235415  0.48525669     0.38500
H885        H  0.06134050  0.20505855  0.47789763     0.34000
C886        C  0.33537915  0.67166991  0.56807273     0.45600
H887        H  0.33501443  0.67281273  0.58335623    -0.03400
C888        C  0.33626555  0.66873747  0.53228783     0.45600
H889        H  0.33700907  0.66733515  0.51706260    -0.03400
C890        C  0.37388636  0.68707859  0.56011540    -0.17100
C891        C  0.31295002  0.63242229  0.56050448    -0.16900
C892        C  0.31984770  0.69370214  0.55885204    -0.17300
C893        C  0.37492652  0.68460254  0.54129914    -0.17200
C894        C  0.31265912  0.63028380  0.54164181    -0.16800
C895        C  0.32056707  0.69333009  0.53988016    -0.17100
C896        C  0.16800527  0.83204751  0.49284140     0.45600
H897        H  0.16984985  0.83064408  0.50802709    -0.03400
C898        C  0.16412573  0.83599417  0.45721144     0.45600
H899        H  0.16205562  0.83797005  0.44208271    -0.03400
C900        C  0.18739798  0.81421742  0.48217060    -0.17100
C901        C  0.12798707  0.81223255  0.48519376    -0.16900
C902        C  0.18656510  0.87225827  0.48547241    -0.17300
C903        C  0.18440093  0.81552407  0.46327019    -0.17200
C904        C  0.12639241  0.81536640  0.46639989    -0.16800
C905        C  0.18412510  0.87386253  0.46669800    -0.17100
Zn906      Zn  0.11761503  0.80792696  0.68856309     1.49700
Zn907      Zn  0.19376085  0.88670144  0.68891870     1.49400
Zn908      Zn  0.19482536  0.80971566  0.68649708     1.49100
Zn909      Zn  0.16791306  0.83903779  0.65312977     1.49500
O910        O  0.16838103  0.83574344  0.67954217    -1.84000
O911        O  0.10780471  0.84057699  0.70546325    -0.74600
O912        O  0.23839841  0.89591517  0.70322707    -0.74400
O913        O  0.16402028  0.76604348  0.70298814    -0.74000
O914        O  0.16091381  0.89388579  0.70632759    -0.74600
O915        O  0.11023594  0.76432248  0.70412067    -0.74200
O916        O  0.23968851  0.84322045  0.70125036    -0.74800
O917        O  0.19462546  0.81654535  0.64148844    -0.74200
O918        O  0.20955448  0.92592730  0.66892449    -0.75000
O919        O  0.21115033  0.79256742  0.66418266    -0.74400
O920        O  0.19076613  0.89073106  0.64401784    -0.74800
O921        O  0.11725469  0.81241545  0.64327296    -0.74700
O922        O  0.08044744  0.78941395  0.66737848    -0.74500
C923        C  0.12771974  0.87359636  0.71149020     0.77300
C924        C  0.25312133  0.87633910  0.70711470     0.77800
C925        C  0.13119190  0.75172232  0.70897576     0.76700
C926        C  0.20966794  0.79839444  0.64707387     0.77100
C927        C  0.20622830  0.92260336  0.65150727     0.78200
C928        C  0.08518622  0.79393015  0.65002990     0.77300
C929        C  0.00094449  0.49959460  0.79021573     0.45600
H930        H  0.00203153  0.49972842  0.77493147    -0.03400
C931        C  0.99876322  0.49884842  0.82607833     0.45600
H932        H  0.99753665  0.49862439  0.84131937    -0.03400
C933        C  0.46211875  0.98309157  0.79789361    -0.17100
C934        C  0.01664170  0.97713897  0.79898819    -0.16900
C935        C  0.02235474  0.53812969  0.79878751    -0.17300
C936        C  0.46046634  0.98262572  0.81676034    -0.17200
C937        C  0.01554370  0.97619401  0.81787030    -0.16800
C938        C  0.02229211  0.53805847  0.81770652    -0.17100
C939        C  0.16657932  0.83248932  0.86416897     0.45600
H940        H  0.16629126  0.83173975  0.84890241    -0.03400
C941        C  0.16774932  0.83489984  0.89999281     0.45600
H942        H  0.16801814  0.83564064  0.91527458    -0.03400
C943        C  0.14266008  0.84773839  0.87259066    -0.17100
C944        C  0.15200554  0.79388360  0.87338122    -0.16900
C945        C  0.20560994  0.85735750  0.87241956    -0.17300
C946        C  0.14421705  0.84957599  0.89148533    -0.17200
C947        C  0.15229897  0.79576712  0.89231716    -0.16800
C948        C  0.20579809  0.85766639  0.89134770    -0.17100
C949        C  0.33362480  0.66566913  0.12280888     0.45600
H950        H  0.33549318  0.66688779  0.10753934    -0.03400
C951        C  0.32945386  0.66362624  0.15857201     0.45600
H952        H  0.32767808  0.66298035  0.17382105    -0.03400
C953        C  0.29421284  0.64816712  0.12990578    -0.17100
C954        C  0.34933676  0.64317877  0.13148522    -0.16900
C955        C  0.35419929  0.70376010  0.13184223    -0.17300
C956        C  0.29167255  0.64804463  0.14880985    -0.17200
C957        C  0.34644447  0.64083799  0.15039760    -0.16800
C958        C  0.35250230  0.70327122  0.15064421    -0.17100
C959        C  0.49826725  0.99919936  0.19789394     0.45600
H960        H  0.49640542  0.99860584  0.18265664    -0.03400
C961        C  0.50257729  0.00166790  0.23371211     0.45600
H962        H  0.00469049  0.00318995  0.24897316    -0.03400
C963        C  0.47834686  0.51800960  0.20698945    -0.17100
C964        C  0.48049182  0.96019458  0.20707133    -0.16900
C965        C  0.03826387  0.52063654  0.20553051    -0.17300
C966        C  0.48048567  0.51866754  0.22578989    -0.17200
C967        C  0.48421903  0.96214430  0.22603950    -0.22500
C968        C  0.03981419  0.52175555  0.22434741    -0.17100
Zn969      Zn  0.35759690  0.71683311  0.35463747     1.49700
Zn970      Zn  0.33362928  0.66505105  0.31923889     1.49400
Zn971      Zn  0.35819851  0.63985875  0.35529693     1.49100
Zn972      Zn  0.28065104  0.63907694  0.35316217     1.49500
O973        O  0.33264844  0.66526200  0.34579837    -1.84000
O974        O  0.37655631  0.75367169  0.33344374    -0.74600
O975        O  0.35901388  0.63890445  0.30994176    -0.74400
O976        O  0.40076544  0.67386465  0.37168304    -0.74000
O977        O  0.36041656  0.71624356  0.30925457    -0.74600
O978        O  0.40092241  0.72742147  0.37093648    -0.74200
O979        O  0.37704309  0.62050257  0.33449347    -0.74800
O980        O  0.27099898  0.59764267  0.37037598    -0.74200
O981        O  0.28336276  0.63927635  0.30808488    -0.75000
O982        O  0.32431666  0.59816617  0.37200677    -0.74400
O983        O  0.24503814  0.61801563  0.33158507    -0.74800
O984        O  0.26897136  0.67289551  0.36787188    -0.74700
O985        O  0.32272570  0.72525705  0.37044596    -0.74500
C986        C  0.37596278  0.74875153  0.31609483     0.77300
C987        C  0.37488215  0.62266710  0.31706986     0.77800
C988        C  0.41411086  0.70752722  0.37673753     0.76700
C989        C  0.29100145  0.58536543  0.37698177     0.77100
C990        C  0.25074281  0.62128261  0.31430875     0.78200
C991        C  0.28867574  0.70546282  0.37441042     0.77300
Zn992      Zn  0.04941397  0.52148998  0.00199271     1.49700
Zn993      Zn  0.47452888  0.52520377  0.00290663     1.49400
Zn994      Zn  0.47128434  0.94640832  0.00422710     1.49100
Zn995      Zn  0.50093108  0.50032043  0.03839441     1.49500
O996        O  0.49921776  0.99848277  0.01172094    -1.84000
O997        O  0.05924938  0.56474999  0.98553318    -0.74600
O998        O  0.43346109  0.99262549  0.98545660    -0.74400
O999        O  0.00290003  0.93272728  0.98919557    -0.74000
O1000       O  0.00938015  0.57022968  0.98817481    -0.74600
O1001       O  0.05680160  0.98454253  0.98695139    -0.74200
O1002       O  0.42934575  0.93750869  0.98754763    -0.74800
O1003       O  0.47859165  0.94978816  0.04957397    -0.74200
O1004       O  0.45341705  0.54107202  0.02397253    -0.75000
O1005       O  0.45219951  0.91164037  0.02603926    -0.74400
O1006       O  0.47217934  0.52280360  0.04836927    -0.74800
O1007       O  0.05265390  0.53018916  0.04742703    -0.74700
O1008       O  0.08743321  0.54186337  0.02252854    -0.74500
C1009       C  0.04149828  0.58148991  0.98173775     0.77300
C1010       C  0.41847883  0.95858590  0.98072421     0.77800
C1011       C  0.03562959  0.95033620  0.98306067     0.76700
C1012       C  0.45869304  0.91714207  0.04322131     0.77100
C1013       C  0.45470440  0.53747615  0.04132963     0.78200
C1014       C  0.08409944  0.54432857  0.03982482     0.77300
C1015       C  0.07391619  0.53684888  0.23542285    -0.19700
C1016       C  0.09453163  0.57476869  0.23999061     0.36500
C1017       C  0.12428116  0.58705443  0.25223334    -0.25700
C1018       C  0.13320939  0.56184962  0.26021799     0.02900
C1019       C  0.11297169  0.52397576  0.25546794     0.27700
C1020       C  0.08317581  0.51175334  0.24322566    -0.24800
N1021       N  0.08451273  0.60060149  0.23284872    -0.82200
H1022       H  0.13983221  0.61619988  0.25593800     0.13500
C1023       C  0.16318249  0.57543669  0.27395890     0.02900
N1024       N  0.12254770  0.49815647  0.26328362    -0.80800
H1025       H  0.06663171  0.48244862  0.24001833     0.18400
C1026       C  0.15446534  0.56834741  0.29265271    -0.25600
C1027       C  0.18218029  0.58272576  0.30624216     0.36400
C1028       C  0.21957835  0.60441854  0.30087527    -0.19700
C1029       C  0.22788529  0.61036574  0.28195058    -0.24900
C1030       C  0.20012796  0.59610203  0.26850109     0.27800
H1031       H  0.12579951  0.55216085  0.29664484     0.13500
N1032       N  0.17224909  0.57529394  0.32531951    -0.82200
H1033       H  0.25624776  0.62645926  0.27751029     0.18400
N1034       N  0.20922229  0.60258932  0.24929242    -0.80800
H1035       H  0.14394994  0.55710292  0.32669370     0.34000
H1036       H  0.17748875  0.60027298  0.33142740     0.38500
H1037       H  0.23773231  0.61848806  0.24753137     0.34000
H1038       H  0.20095847  0.57685766  0.24310687     0.30700
H1039       H  0.10477708  0.47128913  0.25843859     0.34000
H1040       H  0.14886565  0.50539786  0.25857537     0.30700
H1041       H  0.10738838  0.62151532  0.22601049     0.38500
H1042       H  0.07885026  0.61292283  0.24398087     0.34000
C1043       C  0.47042869  0.93011526  0.23898020    -0.19700
C1044       C  0.47856696  0.90088850  0.23731688     0.36500
C1045       C  0.46279728  0.87119921  0.24976659    -0.25700
C1046       C  0.44008369  0.87046322  0.26413959     0.02900
C1047       C  0.43286258  0.89991176  0.26611026     0.27700
C1048       C  0.44856442  0.92955377  0.25373294    -0.24800
N1049       N  0.50397586  0.90114016  0.22398016    -0.82200
H1050       H  0.46907655  0.84893950  0.24850451     0.13500
C1051       C  0.42449508  0.83916805  0.27733857     0.02900
N1052       N  0.40928378  0.89940020  0.28060895    -0.80800
H1053       H  0.44338941  0.95231495  0.25561377     0.18400
C1054       C  0.43301531  0.84629609  0.29611505    -0.25600
C1055       C  0.41766188  0.81759057  0.30917906     0.36400
C1056       C  0.39335441  0.78078799  0.30324373    -0.19700
C1057       C  0.38534402  0.77391217  0.28433540    -0.24900
C1058       C  0.40026178  0.80267535  0.27141362     0.27800
H1059       H  0.45177148  0.87448960  0.30057128     0.13500
N1060       N  0.42684524  0.82584769  0.32832022    -0.82200
H1061       H  0.36653595  0.74599288  0.27955785     0.18400
N1062       N  0.38978509  0.79519582  0.25238517    -0.80800
H1063       H  0.44396271  0.85439463  0.33033601     0.34000
H1064       H  0.44217605  0.81336353  0.33221152     0.38500
H1065       H  0.37253328  0.76673823  0.25016647     0.34000
H1066       H  0.37401771  0.80769207  0.24950430     0.30700
H1067       H  0.40688787  0.92326885  0.28021007     0.34000
H1068       H  0.38293759  0.87690890  0.27816147     0.30700
H1069       H  0.51672668  0.92582465  0.21658799     0.38500
H1070       H  0.48904244  0.87954780  0.21464877     0.34000
C1071       C  0.39046769  0.60610078  0.30435272    -0.19700
C1072       C  0.42215148  0.60366370  0.30861200     0.36500
C1073       C  0.43711454  0.59064155  0.29512012    -0.25700
C1074       C  0.42072213  0.57955905  0.27768420     0.02900
C1075       C  0.38898235  0.58159209  0.27349777     0.27700
C1076       C  0.37420812  0.59477365  0.28684215    -0.24800
N1077       N  0.43969008  0.61541701  0.32628613    -0.82200
H1078       H  0.46142053  0.58871919  0.29824107     0.13500
C1079       C  0.43614306  0.56463476  0.26401600     0.02900
N1080       N  0.37208985  0.57051006  0.25562674    -0.80800
H1081       H  0.34985385  0.59642926  0.28347005     0.18400
C1082       C  0.41431825  0.52788822  0.25799602    -0.25600
C1083       C  0.42728153  0.51244361  0.24494930     0.36400
C1084       C  0.46341257  0.53426915  0.23798312    -0.19700
C1085       C  0.48502892  0.57120896  0.24374773    -0.24900
C1086       C  0.47165686  0.58677665  0.25665553     0.27800
H1087       H  0.38689629  0.51095882  0.26357277     0.13500
N1088       N  0.40338385  0.97446954  0.23964154    -0.82200
H1089       H  0.01245276  0.58783812  0.23818591     0.18400
N1090       N  0.49382238  0.62487559  0.26227675    -0.80800
H1091       H  0.38025124  0.97302536  0.23333221     0.34000
H1092       H  0.41563776  0.96554034  0.22995406     0.38500
H1093       H  0.01929522  0.63721682  0.25560415     0.34000
H1094       H  0.48040343  0.63905385  0.25791795     0.30700
H1095       H  0.34877652  0.57349631  0.25477390     0.34000
H1096       H  0.39087548  0.58866470  0.24596466     0.30700
H1097       H  0.42209613  0.59630755  0.33599870     0.38500
H1098       H  0.46393718  0.61403173  0.32667803     0.34000
C1099       C  0.37149205  0.73756242  0.12048447    -0.19700
C1100       C  0.40292912  0.74628956  0.10995503     0.36500
C1101       C  0.41663401  0.77643201  0.09782315    -0.25700
C1102       C  0.39913990  0.79750742  0.09600366     0.02900
C1103       C  0.36762181  0.78876480  0.10649206     0.27700
C1104       C  0.35387964  0.75854963  0.11860142    -0.24800
N1105       N  0.42033148  0.72408881  0.11142906    -0.82200
H1106       H  0.44075394  0.78332854  0.08958954     0.13500
C1107       C  0.41390823  0.82827007  0.08272610     0.02900
N1108       N  0.34945434  0.81017897  0.10451658    -0.80800
H1109       H  0.32886064  0.75072436  0.12621134     0.18400
C1110       C  0.39793399  0.82235013  0.06523709    -0.25600
C1111       C  0.41231212  0.85044136  0.05186318     0.36400
C1112       C  0.44305328  0.88548309  0.05631773    -0.19700
C1113       C  0.45868524  0.89110009  0.07404428    -0.24900
C1114       C  0.44445896  0.86279555  0.08725386     0.27800
H1115       H  0.37445544  0.79546097  0.06195810     0.13500
N1116       N  0.39530954  0.84352357  0.03400379    -0.82200
H1117       H  0.48225646  0.91767662  0.07763875     0.18400
N1118       N  0.46098083  0.86877243  0.10521028    -0.80800
H1119       H  0.37141774  0.81747907  0.03359467     0.34000
H1120       H  0.41349213  0.84214763  0.02462185     0.38500
H1121       H  0.48349554  0.89566140  0.10632543     0.34000
H1122       H  0.44154896  0.86684190  0.11482037     0.30700
H1123       H  0.32640186  0.79980251  0.11308197     0.34000
H1124       H  0.36768059  0.83713100  0.10909605     0.30700
H1125       H  0.43130909  0.72792616  0.12468975     0.38500
H1126       H  0.44255067  0.73356160  0.10236200     0.34000
C1127       C  0.26296359  0.63372470  0.11667958    -0.19700
C1128       C  0.23455899  0.59599001  0.11608407     0.36500
C1129       C  0.20732256  0.58448835  0.10249764    -0.25700
C1130       C  0.20773589  0.60940940  0.08946410     0.02900
C1131       C  0.23574500  0.64681927  0.08994188     0.27700
C1132       C  0.26324481  0.65856818  0.10349792    -0.24800
N1133       N  0.23299032  0.56820271  0.12836681    -0.82200
H1134       H  0.18568737  0.55564656  0.10199976     0.13500
C1135       C  0.17805353  0.59570181  0.07560589     0.02900
N1136       N  0.23606735  0.67259277  0.07668075    -0.80800
H1137       H  0.28503247  0.68733975  0.10385232     0.18400
C1138       C  0.14804589  0.60100889  0.07866985    -0.25600
C1139       C  0.11759187  0.58546037  0.06675669     0.36400
C1140       C  0.11722230  0.56400010  0.05154786    -0.19700
C1141       C  0.14808477  0.56006756  0.04806867    -0.24900
C1142       C  0.17855053  0.57565600  0.06006380     0.27800
H1143       H  0.14815486  0.61674842  0.09060558     0.13500
N1144       N  0.08701358  0.59133403  0.07004065    -0.82200
H1145       H  0.14788122  0.54378630  0.03635505     0.18400
N1146       N  0.20959617  0.57054127  0.05684010    -0.80800
H1147       H  0.09156188  0.60752411  0.08183678     0.34000
H1148       H  0.08556136  0.60664245  0.05899515     0.38500
H1149       H  0.20552169  0.55482056  0.04491418     0.34000
H1150       H  0.23246835  0.59669149  0.05440620     0.30700
H1151       H  0.25842067  0.69917192  0.07903685     0.34000
H1152       H  0.24012362  0.66429659  0.06371658     0.30700
H1153       H  0.25513255  0.57902366  0.13742424     0.38500
H1154       H  0.20928300  0.55880864  0.13637685     0.34000
C1155       C  0.36417579  0.62498041  0.11930711    -0.19700
C1156       C  0.40099972  0.63215028  0.12019374     0.36500
C1157       C  0.41317128  0.61593935  0.10709835    -0.25700
C1158       C  0.38996008  0.59361953  0.09293593     0.02900
C1159       C  0.35340279  0.58624547  0.09200077     0.27700
C1160       C  0.34088411  0.60200377  0.10520704    -0.24800
N1161       N  0.42746059  0.65716085  0.13330739    -0.82200
H1162       H  0.44140975  0.62169717  0.10764665     0.13500
C1163       C  0.40468067  0.57865436  0.07900504     0.02900
N1164       N  0.32923148  0.56281477  0.07767237    -0.80800
H1165       H  0.31276084  0.59655634  0.10445141     0.18400
C1166       C  0.40137421  0.54386411  0.08191089    -0.25600
C1167       C  0.41673953  0.52948636  0.06948158     0.36400
C1168       C  0.43563541  0.55043202  0.05381884    -0.19700
C1169       C  0.43798964  0.58486380  0.05067704    -0.24900
C1170       C  0.42294992  0.59939453  0.06327279     0.27800
H1171       H  0.38715374  0.52815713  0.09404333     0.13500
N1172       N  0.41316929  0.99353005  0.07261841    -0.82200
H1173       H  0.45268798  0.60097649  0.03873126     0.18400
N1174       N  0.42708663  0.63553603  0.06050238    -0.80800
H1175       H  0.39874222  0.98190286  0.08478808     0.34000
H1176       H  0.39724946  0.97597694  0.06191363     0.38500
H1177       H  0.44187465  0.64748620  0.04846008     0.34000
H1178       H  0.40084386  0.63210718  0.05852807     0.30700
H1179       H  0.30304685  0.55983253  0.07909594     0.34000
H1180       H  0.33957893  0.57620771  0.06512417     0.30700
H1181       H  0.41692919  0.67054174  0.14123666     0.38500
H1182       H  0.43391409  0.64146403  0.14220059     0.34000
C1183       C  0.35846410  0.61865858  0.16172578    -0.19700
C1184       C  0.34787855  0.58124722  0.15745163     0.36500
C1185       C  0.36667574  0.56492486  0.16550798    -0.25700
C1186       C  0.39446366  0.58377857  0.17863118     0.02900
C1187       C  0.40238441  0.61957308  0.18439568     0.27700
C1188       C  0.38436415  0.63664056  0.17584068    -0.24800
N1189       N  0.31758870  0.55842312  0.14546857    -0.82200
H1190       H  0.35977974  0.53723402  0.16115382     0.13500
C1191       C  0.41573356  0.56606371  0.18550742     0.02900
N1192       N  0.42906446  0.63864817  0.19868551    -0.80800
H1193       H  0.39170475  0.66468285  0.17968666     0.18400
C1194       C  0.45440334  0.58585892  0.18465012    -0.25600
C1195       C  0.47542822  0.56979900  0.19043851     0.36400
C1196       C  0.45757224  0.53306644  0.19698954    -0.19700
C1197       C  0.41901105  0.51260529  0.19694216    -0.24900
C1198       C  0.39788270  0.52889616  0.19175500     0.27800
H1199       H  0.46826508  0.61391432  0.17932234     0.13500
N1200       N  0.01486632  0.59071876  0.18981349    -0.82200
H1201       H  0.40528145  0.98418177  0.20179404     0.18400
N1202       N  0.35842991  0.50813673  0.19328954    -0.80800
H1203       H  0.02387282  0.61774161  0.18523798     0.34000
H1204       H  0.02307435  0.57813662  0.17986286     0.38500
H1205       H  0.34967943  0.98138410  0.19827713     0.34000
H1206       H  0.35080716  0.52124842  0.20323269     0.30700
H1207       H  0.43185062  0.66471247  0.20122976     0.34000
H1208       H  0.41889784  0.62327232  0.21076968     0.30700
H1209       H  0.30440775  0.57245607  0.14083245     0.38500
H1210       H  0.32795774  0.55145983  0.13399625     0.34000
C1211       C  0.07239690  0.53859669  0.19427790    -0.19700
C1212       C  0.09080003  0.51930431  0.18924843     0.36500
C1213       C  0.12626559  0.53887123  0.18153688    -0.25700
C1214       C  0.14496564  0.57779461  0.18005890     0.02900
C1215       C  0.12652662  0.59708325  0.18533334     0.27700
C1216       C  0.09021493  0.57712150  0.19188384    -0.24800
N1217       N  0.07420478  0.48025745  0.19277435    -0.82200
H1218       H  0.13995522  0.52379188  0.17730660     0.13500
C1219       C  0.18386591  0.59791936  0.17331128     0.02900
N1220       N  0.14525368  0.63697861  0.18488379    -0.80800
H1221       H  0.07676522  0.59212061  0.19644301     0.18400
C1222       C  0.19411486  0.62553246  0.15986888    -0.25600
C1223       C  0.23038087  0.64575872  0.15351323     0.36400
C1224       C  0.25619225  0.63482486  0.15877470    -0.19700
C1225       C  0.24657985  0.60818899  0.17266171    -0.24900
C1226       C  0.21103909  0.59048187  0.18041353     0.27800
H1227       H  0.17395167  0.63214136  0.15446883     0.13500
N1228       N  0.24004109  0.67748287  0.14203826    -0.82200
H1229       H  0.26657966  0.60054422  0.17716639     0.18400
N1230       N  0.20248655  0.56508520  0.19545740    -0.80800
H1231       H  0.23387761  0.69539055  0.14936218     0.34000
H1232       H  0.26841524  0.69272429  0.13990862     0.38500
H1233       H  0.22550533  0.56292026  0.19910005     0.34000
H1234       H  0.19628723  0.57638851  0.20684426     0.30700
H1235       H  0.12782505  0.64678766  0.18918986     0.34000
H1236       H  0.16686382  0.64680674  0.19440222     0.30700
H1237       H  0.07291401  0.97678963  0.20704015     0.38500
H1238       H  0.09095824  0.97002950  0.18793629     0.34000
C1239       C  0.36852978  0.73818224  0.16166953    -0.19700
C1240       C  0.40630643  0.75804336  0.16662447     0.36500
C1241       C  0.42157382  0.79436104  0.17357818    -0.25700
C1242       C  0.40041348  0.81186716  0.17541762     0.02900
C1243       C  0.36280547  0.79194612  0.17051664     0.27700
C1244       C  0.34707950  0.75514393  0.16418174    -0.24800
N1245       N  0.43026994  0.74286787  0.16429595    -0.82200
H1246       H  0.45049782  0.80931716  0.17730652     0.13500
C1247       C  0.41840171  0.85106495  0.18221172     0.02900
N1248       N  0.34093656  0.80963235  0.17095017    -0.80800
H1249       H  0.31837408  0.74053463  0.16007340     0.18400
C1250       C  0.45052832  0.87859861  0.17363647    -0.25600
C1251       C  0.47029146  0.91491978  0.18085894     0.36400
C1252       C  0.45778985  0.92422225  0.19694025    -0.19700
C1253       C  0.42393620  0.89747156  0.20446387    -0.24900
C1254       C  0.40501722  0.86095977  0.19771433     0.27800
H1255       H  0.46091770  0.87159351  0.16152933     0.13500
N1256       N  0.50361246  0.94164238  0.17212872    -0.82200
H1257       H  0.41282816  0.90435678  0.21631006     0.18400
N1258       N  0.37339370  0.83353049  0.20736273    -0.80800
H1259       H  0.52109520  0.93047375  0.17138563     0.34000
H1260       H  0.49717490  0.94522138  0.15866189     0.38500
H1261       H  0.38152952  0.83269059  0.22084122     0.34000
H1262       H  0.35396012  0.84231857  0.20783040     0.30700
H1263       H  0.33115747  0.80901128  0.15763504     0.34000
H1264       H  0.31820560  0.79396387  0.17940297     0.30700
H1265       H  0.41604682  0.71599130  0.15902974     0.38500
H1266       H  0.43967014  0.74084128  0.17733833     0.34000
C1267       C  0.38852256  0.94382466  0.96665415    -0.19700
C1268       C  0.36765720  0.90551799  0.96212172     0.36500
C1269       C  0.33951970  0.89357534  0.94887037    -0.25700
C1270       C  0.33222656  0.91886709  0.93972745     0.02900
C1271       C  0.35338435  0.95698885  0.94382675     0.27700
C1272       C  0.38105048  0.96902024  0.95730129    -0.24800
N1273       N  0.37453550  0.87868989  0.97104247    -0.82200
H1274       H  0.32292468  0.86424626  0.94571007     0.13500
C1275       C  0.30115543  0.90477083  0.92651723     0.02900
N1276       N  0.34665790  0.98330468  0.93425246    -0.80800
H1277       H  0.39704553  0.99841609  0.96037420     0.18400
C1278       C  0.27238393  0.91202181  0.92987250    -0.25600
C1279       C  0.24170286  0.89811939  0.91816682     0.36400
C1280       C  0.23936758  0.87570293  0.90303640    -0.19700
C1281       C  0.26817974  0.86841847  0.89968483    -0.24900
C1282       C  0.29941979  0.88332944  0.91108299     0.27800
H1283       H  0.27381099  0.92843009  0.94178195     0.13500
N1284       N  0.21300643  0.90678247  0.92156805    -0.82200
H1285       H  0.26605754  0.85059088  0.88830067     0.18400
N1286       N  0.32933247  0.87679096  0.90710033    -0.80800
H1287       H  0.21865148  0.92300222  0.93344196     0.34000
H1288       H  0.21302560  0.92309609  0.91066019     0.38500
H1289       H  0.32366116  0.86045132  0.89526400     0.34000
H1290       H  0.35243335  0.90245506  0.90411587     0.30700
H1291       H  0.36450034  0.01029579  0.93891506     0.34000
H1292       H  0.35275702  0.98255960  0.92036763     0.30700
H1293       H  0.39974444  0.88271654  0.96616831     0.38500
H1294       H  0.35484877  0.85170588  0.96714568     0.34000
C1295       C  0.05823576  0.61392267  0.96906859    -0.19700
C1296       C  0.04531074  0.63956391  0.96786610     0.36500
C1297       C  0.06070051  0.66822036  0.95477152    -0.25700
C1298       C  0.08892549  0.67215616  0.94302161     0.02900
C1299       C  0.10224834  0.64709854  0.94434299     0.27700
C1300       C  0.08695031  0.61842900  0.95738954    -0.24800
N1301       N  0.01695040  0.63677901  0.97999501    -0.82200
H1302       H  0.05097069  0.68794079  0.95384086     0.13500
C1303       C  0.10486649  0.70318121  0.92964663     0.02900
N1304       N  0.13091996  0.65059887  0.93222928    -0.80800
H1305       H  0.09699356  0.59895347  0.95810460     0.18400
C1306       C  0.14193481  0.73077737  0.93145233    -0.25600
C1307       C  0.15799409  0.76093012  0.91926938     0.36400
C1308       C  0.13654128  0.76339103  0.90496135    -0.19700
C1309       C  0.09940636  0.73584822  0.90316939    -0.24900
C1310       C  0.08335935  0.70562519  0.91534886     0.27800
H1311       H  0.15827391  0.72885787  0.94251552     0.13500
N1312       N  0.19600314  0.78904731  0.92133472    -0.82200
H1313       H  0.08289529  0.73814210  0.89231289     0.18400
N1314       N  0.04538233  0.67742041  0.91329371    -0.80800
H1315       H  0.20783039  0.78337459  0.93264626     0.34000
H1316       H  0.21006128  0.78796888  0.90968837     0.38500
H1317       H  0.03338442  0.68348252  0.90218850     0.34000
H1318       H  0.04471558  0.65256295  0.91004222     0.30700
H1319       H  0.13771086  0.63003645  0.93498156     0.34000
H1320       H  0.12049351  0.64591690  0.91880873     0.30700
H1321       H  0.52770249  0.64202769  0.99335434     0.38500
H1322       H  0.51026952  0.65735195  0.97705084     0.34000
C1323       C  0.04917571  0.93106751  0.97076152    -0.19700
C1324       C  0.02484833  0.89956641  0.96010805     0.36500
C1325       C  0.03935187  0.88513444  0.94716333    -0.25700
C1326       C  0.07741470  0.90063584  0.94499610     0.02900
C1327       C  0.10168070  0.93055076  0.95630309     0.27700
C1328       C  0.08735602  0.94579804  0.96885553    -0.24800
N1329       N  0.98558575  0.88308356  0.96189401    -0.82200
H1330       H  0.02088474  0.86200497  0.93848796     0.13500
C1331       C  0.09174370  0.88634749  0.93037642     0.02900
N1332       N  0.14079989  0.94539265  0.95488784    -0.80800
H1333       H  0.10617067  0.96940047  0.97717305     0.18400
C1334       C  0.11449798  0.91089075  0.91679499    -0.25600
C1335       C  0.13143843  0.89996144  0.90358447     0.36400
C1336       C  0.12450795  0.86285775  0.90357318    -0.19700
C1337       C  0.10052020  0.83792140  0.91677855    -0.24900
C1338       C  0.08409757  0.84926596  0.93021451     0.27800
H1339       H  0.12025198  0.93938938  0.91687454     0.13500
N1340       N  0.15714486  0.92809041  0.89142745    -0.82200
H1341       H  0.09525391  0.80958880  0.91683452     0.18400
N1342       N  0.06054061  0.82361847  0.94395762    -0.80800
H1343       H  0.14229144  0.93593284  0.88275548     0.34000
H1344       H  0.17055590  0.91819042  0.88315744     0.38500
H1345       H  0.05762735  0.79738242  0.94182745     0.34000
H1346       H  0.07355761  0.83301605  0.95670489     0.30700
H1347       H  0.15473756  0.46709379  0.96426442     0.34000
H1348       H  0.14638833  0.92449878  0.95882897     0.30700
H1349       H  0.47830439  0.86986296  0.97466772     0.38500
H1350       H  0.47194449  0.86217120  0.95206255     0.34000
C1351       C  0.12036172  0.85974967  0.86162793    -0.19700
C1352       C  0.08201259  0.84458131  0.86457600     0.36500
C1353       C  0.06420120  0.86276917  0.85739591    -0.25700
C1354       C  0.08342747  0.89563459  0.84727499     0.02900
C1355       C  0.12099258  0.90936815  0.84323764     0.27700
C1356       C  0.13894952  0.89092094  0.85023807    -0.24800
N1357       N  0.06017542  0.81080892  0.87465778    -0.82200
H1358       H  0.03514765  0.85160596  0.86017094     0.13500
C1359       C  0.06372759  0.91526681  0.84109562     0.02900
N1360       N  0.14090530  0.94246552  0.83244410    -0.80800
H1361       H  0.16819406  0.90241736  0.84789249     0.18400
C1362       C  0.07583703  0.95177718  0.84707599    -0.25600
C1363       C  0.05844484  0.97149021  0.84102262     0.36400
C1364       C  0.02855792  0.95433764  0.82863681    -0.19700
C1365       C  0.01493258  0.91697193  0.82375711    -0.24900
C1366       C  0.03259344  0.89752803  0.82952808     0.27800
H1367       H  0.09923441  0.96504072  0.85632618     0.13500
N1368       N  0.07203312  0.50920782  0.84678832    -0.82200
H1369       H  0.99170888  0.90366621  0.81440090     0.18400
N1370       N  0.01993026  0.86033044  0.82309926    -0.80800
H1371       H  0.09547975  0.51830957  0.85502606     0.34000
H1372       H  0.05202959  0.50965416  0.85517830     0.38500
H1373       H  0.99679685  0.85135348  0.81463652     0.34000
H1374       H  0.04069770  0.86094045  0.81487975     0.30700
H1375       H  0.16833848  0.94911436  0.83087849     0.34000
H1376       H  0.12921461  0.93675018  0.81928883     0.30700
H1377       H  0.07569646  0.79895948  0.87909232     0.38500
H1378       H  0.05006915  0.81731636  0.88638140     0.34000
C1379       C  0.04399882  0.57230644  0.82879008    -0.19700
C1380       C  0.08290904  0.59200836  0.82828927     0.36500
C1381       C  0.10220935  0.62797088  0.83584511    -0.25700
C1382       C  0.08342541  0.64412165  0.84424950     0.02900
C1383       C  0.04484274  0.62282780  0.84639754     0.27700
C1384       C  0.02546676  0.58705944  0.83860156    -0.24800
N1385       N  0.10269740  0.57506046  0.82067648    -0.82200
H1386       H  0.13195220  0.64384077  0.83478630     0.13500
C1387       C  0.10419868  0.68359111  0.85035471     0.02900
N1388       N  0.02554027  0.63792132  0.85626138    -0.80800
H1389       H  0.49568353  0.57130999  0.83944857     0.18400
C1390       C  0.09554969  0.70930337  0.84265355    -0.25600
C1391       C  0.11240063  0.74627369  0.84901955     0.36400
C1392       C  0.13879781  0.75786204  0.86329696    -0.19700
C1393       C  0.14984869  0.73289109  0.86968403    -0.24900
C1394       C  0.13213403  0.69568579  0.86378702     0.27800
H1395       H  0.07471353  0.70010672  0.83197401     0.13500
N1396       N  0.10187866  0.77149529  0.84139386    -0.82200
H1397       H  0.17110804  0.74197308  0.88012631     0.18400
N1398       N  0.14140952  0.66984948  0.87189013    -0.80800
H1399       H  0.08302442  0.75887395  0.83064122     0.34000
H1400       H  0.08803618  0.77725506  0.85164320     0.38500
H1401       H  0.16237577  0.68315487  0.88165829     0.34000
H1402       H  0.11825583  0.65007862  0.87902880     0.30700
H1403       H  0.49730818  0.61880892  0.85657910     0.34000
H1404       H  0.03476539  0.64202370  0.86990010     0.30700
H1405       H  0.09782448  0.57174097  0.80656604     0.38500
H1406       H  0.13108813  0.59256881  0.82225362     0.34000
C1407       C  0.23998295  0.87904866  0.86128562    -0.19700
C1408       C  0.26427246  0.91760087  0.86430928     0.36500
C1409       C  0.30005673  0.93469502  0.85717124    -0.25700
C1410       C  0.31219224  0.91512810  0.84621037     0.02900
C1411       C  0.28705400  0.87758956  0.84179462     0.27700
C1412       C  0.25135717  0.85986930  0.84951167    -0.24800
N1413       N  0.25360652  0.94050697  0.87435676    -0.82200
H1414       H  0.31874611  0.96362477  0.86044150     0.13500
C1415       C  0.35131225  0.93421248  0.83968162     0.02900
N1416       N  0.29805242  0.85750809  0.82967091    -0.80800
H1417       H  0.23290915  0.83056473  0.84697593     0.18400
C1418       C  0.37325956  0.91793390  0.84303446    -0.25600
C1419       C  0.40978655  0.93432126  0.83658139     0.36400
C1420       C  0.42492272  0.96797642  0.82679673    -0.19700
C1421       C  0.40363504  0.98507189  0.82406561    -0.24900
C1422       C  0.36699760  0.96852978  0.83028552     0.27800
H1423       H  0.36162542  0.89200205  0.85051328     0.13500
N1424       N  0.43074205  0.91579979  0.83894931    -0.82200
H1425       H  0.41524816  0.01071740  0.81632490     0.18400
N1426       N  0.34534198  0.98588053  0.82656124    -0.80800
H1427       H  0.41503577  0.89043681  0.84565567     0.34000
H1428       H  0.45287617  0.93222069  0.84765747     0.38500
H1429       H  0.36098086  0.01097159  0.81961291     0.34000
H1430       H  0.32400253  0.96840883  0.81767061     0.30700
H1431       H  0.27649496  0.83030261  0.82780194     0.34000
H1432       H  0.30334820  0.87030748  0.81679168     0.30700
H1433       H  0.22595385  0.92574209  0.87796421     0.38500
H1434       H  0.26912948  0.94917893  0.88647762     0.34000
C1435       C  0.42998628  0.96720524  0.78533520    -0.19700
C1436       C  0.42803688  0.98860775  0.77087560     0.36500
C1437       C  0.39944928  0.97220925  0.75804099    -0.25700
C1438       C  0.37249716  0.93473009  0.75947001     0.02900
C1439       C  0.37403410  0.91310522  0.77398416     0.27700
C1440       C  0.40306307  0.92956928  0.78676668    -0.24800
N1441       N  0.45469300  0.52702503  0.76927686    -0.82200
H1442       H  0.39810157  0.98888517  0.74694123     0.13500
C1443       C  0.34193855  0.91938392  0.74608867     0.02900
N1444       N  0.34613494  0.87473817  0.77567635    -0.80800
H1445       H  0.40511656  0.91290439  0.79764030     0.18400
C1446       C  0.33829795  0.89213591  0.73350984    -0.25600
C1447       C  0.31019035  0.87824691  0.72016836     0.36400
C1448       C  0.28525796  0.89189953  0.71962307    -0.19700
C1449       C  0.28947492  0.91952877  0.73215838    -0.24900
C1450       C  0.31730807  0.93310739  0.74549211     0.27800
H1451       H  0.35772035  0.88209924  0.73399020     0.13500
N1452       N  0.30714661  0.85073184  0.70714942    -0.82200
H1453       H  0.27023869  0.92980217  0.73196652     0.18400
N1454       N  0.32046409  0.96046700  0.75864483    -0.80800
H1455       H  0.32739782  0.84352497  0.70959662     0.34000
H1456       H  0.31237346  0.86278640  0.69408856     0.38500
H1457       H  0.30025531  0.96777616  0.75631209     0.34000
H1458       H  0.31530840  0.94825995  0.77166939     0.30700
H1459       H  0.35140524  0.86280572  0.78709199     0.34000
H1460       H  0.32114026  0.87383266  0.77824686     0.30700
H1461       H  0.44086286  0.54214074  0.76967837     0.38500
H1462       H  0.46741163  0.53131623  0.75644328     0.34000
C1463       C  0.11702881  0.72013046  0.72207760    -0.19700
C1464       C  0.14059569  0.71515283  0.73430654     0.36500
C1465       C  0.12545671  0.68543717  0.74683247    -0.25700
C1466       C  0.08740814  0.66063328  0.74744413     0.02900
C1467       C  0.06398587  0.66515961  0.73506257     0.27700
C1468       C  0.07896049  0.69506851  0.72270117    -0.24800
N1469       N  0.17962101  0.74067748  0.73432522    -0.82200
H1470       H  0.14332767  0.68196653  0.75643361     0.13500
C1471       C  0.07227907  0.63025102  0.76124331     0.02900
N1472       N  0.02509448  0.63908968  0.73497756    -0.80800
H1473       H  0.06078746  0.69853160  0.71331135     0.18400
C1474       C  0.04564858  0.62775473  0.77375910    -0.25600
C1475       C  0.02899359  0.59840903  0.78629632     0.36400
C1476       C  0.04036287  0.57149709  0.78686316    -0.19700
C1477       C  0.06703154  0.57405640  0.77435073    -0.24900
C1478       C  0.08317398  0.60315299  0.76157313     0.27800
H1479       H  0.03684690  0.64825566  0.77338356     0.13500
N1480       N  0.99897628  0.59559656  0.79709322    -0.82200
H1481       H  0.07489244  0.55282634  0.77440034     0.18400
N1482       N  0.10992390  0.60481721  0.74866025    -0.80800
H1483       H  0.00975674  0.61763701  0.80648203     0.34000
H1484       H  0.48572603  0.57093311  0.80452354     0.38500
H1485       H  0.11502131  0.58289530  0.75080229     0.34000
H1486       H  0.09850133  0.60111019  0.73549421     0.30700
H1487       H  0.01168565  0.64636419  0.72508026     0.34000
H1488       H  0.02152783  0.61328036  0.73102274     0.30700
H1489       H  0.18376001  0.76646440  0.73872703     0.38500
H1490       H  0.19293911  0.73261222  0.74389721     0.34000
C1491       C  0.11217339  0.88840856  0.72513452    -0.19700
C1492       C  0.12464344  0.92684330  0.72650188     0.36500
C1493       C  0.10958288  0.93955358  0.73996386    -0.25700
C1494       C  0.08234147  0.91476474  0.75198158     0.02900
C1495       C  0.07009790  0.87651514  0.75080901     0.27700
C1496       C  0.08498704  0.86366422  0.73730093    -0.24800
N1497       N  0.15187568  0.95273249  0.71399716    -0.82200
H1498       H  0.11845981  0.96888276  0.74082916     0.13500
C1499       C  0.06554234  0.92926479  0.76501744     0.02900
N1500       N  0.04273189  0.85102280  0.76338303    -0.80800
H1501       H  0.07573049  0.83425599  0.73645566     0.18400
C1502       C  0.02788179  0.91725229  0.76336918    -0.25600
C1503       C  0.01147472  0.93237405  0.77452455     0.36400
C1504       C  0.03297378  0.95977521  0.78753343    -0.19700
C1505       C  0.07049716  0.97149099  0.78942462    -0.24900
C1506       C  0.08706302  0.95635018  0.77828323     0.27800
H1507       H  0.01133355  0.89658008  0.75312561     0.13500
N1508       N  0.47293874  0.91969421  0.77274471    -0.82200
H1509       H  0.08688737  0.49271460  0.79949319     0.18400
N1510       N  0.12558358  0.96846293  0.78023916    -0.80800
H1511       H  0.46779675  0.92433266  0.75920979     0.34000
H1512       H  0.45845687  0.89107975  0.77510289     0.38500
H1513       H  0.13742379  0.48850787  0.79063652     0.34000
H1514       H  0.12776767  0.94562844  0.78452166     0.30700
H1515       H  0.03672960  0.82383581  0.76068161     0.34000
H1516       H  0.05405035  0.85760864  0.77661855     0.30700
H1517       H  0.14023899  0.94679316  0.70082252     0.38500
H1518       H  0.15823248  0.97990144  0.71705581     0.34000
C1519       C  0.19679111  0.79672077  0.44969981    -0.19700
C1520       C  0.21498875  0.81412386  0.43319442     0.36500
C1521       C  0.22677039  0.79593553  0.42110627    -0.25700
C1522       C  0.22115522  0.76067306  0.42509386     0.02900
C1523       C  0.20246755  0.74252137  0.44126172     0.27700
C1524       C  0.18984037  0.76044562  0.45324635    -0.24800
N1525       N  0.22278109  0.85075327  0.42871730    -0.82200
H1526       H  0.24132198  0.80992075  0.40867866     0.13500
C1527       C  0.23717473  0.74451479  0.41257228     0.02900
N1528       N  0.19731360  0.70652693  0.44566058    -0.80800
H1529       H  0.17483990  0.74617092  0.46550329     0.18400
C1530       C  0.27385386  0.75364403  0.41525475    -0.25600
C1531       C  0.29130983  0.74131435  0.40293312     0.36400
C1532       C  0.27167614  0.71987261  0.38745176    -0.19700
C1533       C  0.23474272  0.71046686  0.38492350    -0.24900
C1534       C  0.21733990  0.72282686  0.39729855     0.27800
H1535       H  0.28888602  0.77055746  0.42700954     0.13500
N1536       N  0.32856626  0.74981971  0.40630618    -0.82200
H1537       H  0.21959405  0.69382355  0.37312873     0.18400
N1538       N  0.18002011  0.71432064  0.39418882    -0.80800
H1539       H  0.33904665  0.76602436  0.41818610     0.34000
H1540       H  0.32798536  0.72478891  0.40891763     0.38500
H1541       H  0.16955289  0.69867269  0.38214773     0.34000
H1542       H  0.16396716  0.69753530  0.40499264     0.30700
H1543       H  0.18381632  0.69737658  0.45827232     0.34000
H1544       H  0.17990781  0.68780963  0.43569866     0.30700
H1545       H  0.20996397  0.84958920  0.41618414     0.38500
H1546       H  0.25122063  0.86715658  0.42680446     0.34000
C1547       C  0.09234832  0.79844577  0.45483963    -0.19700
C1548       C  0.06261990  0.80534082  0.45734889     0.36500
C1549       C  0.03230586  0.78876008  0.44533194    -0.25700
C1550       C  0.03165986  0.76699672  0.43043101     0.02900
C1551       C  0.06150012  0.76101525  0.42755878     0.27700
C1552       C  0.09122880  0.77636021  0.43990868    -0.24800
N1553       N  0.06304090  0.83073370  0.47091890    -0.82200
H1554       H  0.00966568  0.79407009  0.44721477     0.13500
C1555       C  0.00058456  0.75212581  0.41724417     0.02900
N1556       N  0.06196829  0.74032804  0.41177262    -0.80800
H1557       H  0.11399037  0.77134538  0.43775108     0.18400
C1558       C  0.00221271  0.77391695  0.40218497    -0.25600
C1559       C  0.47438523  0.75993647  0.38867761     0.36400
C1560       C  0.44462525  0.72330804  0.39025841    -0.19700
C1561       C  0.44300981  0.70164742  0.40543340    -0.24900
C1562       C  0.47050071  0.71589665  0.41909154     0.27800
H1563       H  0.02553093  0.80174309  0.40088500     0.13500
N1564       N  0.47654133  0.78249721  0.37323695    -0.82200
H1565       H  0.41978262  0.67378408  0.40682541     0.18400
N1566       N  0.46763421  0.69411356  0.43500596    -0.80800
H1567       H  0.50001882  0.80877803  0.37421004     0.34000
H1568       H  0.47964987  0.77000067  0.36139358     0.38500
H1569       H  0.44339384  0.66837509  0.43446835     0.34000
H1570       H  0.48941930  0.68863967  0.43467789     0.30700
H1571       H  0.08646330  0.73941813  0.41135181     0.34000
H1572       H  0.04067018  0.71293549  0.41325265     0.30700
H1573       H  0.08806317  0.84451835  0.47792589     0.38500
H1574       H  0.04242409  0.81537730  0.48048951     0.34000
C1575       C  0.20026349  0.90847296  0.45575947    -0.19700
C1576       C  0.18095405  0.92759697  0.45261254     0.36500
C1577       C  0.19602831  0.95836042  0.44071890    -0.25700
C1578       C  0.22942104  0.96935874  0.43153144     0.02900
C1579       C  0.24868036  0.95011843  0.43483587     0.27700
C1580       C  0.23410555  0.92035255  0.44713378    -0.24800
N1581       N  0.14590240  0.91524184  0.46119838    -0.82200
H1582       H  0.18138329  0.97332177  0.43829434     0.13500
C1583       C  0.24380236  0.00032803  0.41812336     0.02900
N1584       N  0.28245796  0.96022126  0.42530360    -0.80800
H1585       H  0.24899850  0.90582665  0.44976511     0.18400
C1586       C  0.28022147  0.52961904  0.42003166    -0.25600
C1587       C  0.29628673  0.55755309  0.40670150     0.36400
C1588       C  0.27532093  0.55636480  0.39122512    -0.19700
C1589       C  0.23847615  0.52801711  0.38970142    -0.24900
C1590       C  0.22258775  0.99966198  0.40286024     0.27800
H1591       H  0.29621505  0.53046431  0.43194510     0.13500
N1592       N  0.33358776  0.58732552  0.40895210    -0.82200
H1593       H  0.22231734  0.52748281  0.37792491     0.18400
N1594       N  0.18545156  0.96967659  0.40050404    -0.80800
H1595       H  0.34521633  0.58378958  0.42097792     0.34000
H1596       H  0.33279584  0.61192079  0.41064029     0.38500
H1597       H  0.17364197  0.97353129  0.38863133     0.34000
H1598       H  0.18659374  0.94534836  0.39846929     0.30700
H1599       H  0.29323354  0.94343853  0.42942006     0.34000
H1600       H  0.27621269  0.95495121  0.41130356     0.30700
H1601       H  0.12760651  0.88929589  0.45555554     0.38500
H1602       H  0.13561615  0.93279177  0.45776534     0.34000
C1603       C  0.30394193  0.71155447  0.57045240    -0.19700
C1604       C  0.32540315  0.73715293  0.58426847     0.36500
C1605       C  0.30895238  0.75086858  0.59629065    -0.25700
C1606       C  0.27147397  0.73938573  0.59484416     0.02900
C1607       C  0.24999305  0.71432748  0.58081381     0.27700
C1608       C  0.26654364  0.70063015  0.56867952    -0.24800
N1609       N  0.36396244  0.74943364  0.58588882    -0.82200
H1610       H  0.32542434  0.77069977  0.60686633     0.13500
C1611       C  0.25536324  0.75397756  0.60825223     0.02900
N1612       N  0.21143179  0.70233719  0.57924762    -0.80800
H1613       H  0.25012021  0.68063018  0.55815798     0.18400
C1614       C  0.23948918  0.77453747  0.60189057    -0.25600
C1615       C  0.22424297  0.78928105  0.61414105     0.36400
C1616       C  0.22543727  0.78365669  0.63336424    -0.19700
C1617       C  0.24208002  0.76350840  0.63963263    -0.24900
C1618       C  0.25686576  0.74846632  0.62727968     0.27800
H1619       H  0.23900310  0.77906237  0.58723623     0.13500
N1620       N  0.20780199  0.80993974  0.60699439    -0.82200
H1621       H  0.24337099  0.75915084  0.65423771     0.18400
N1622       N  0.27327615  0.72745145  0.63394731    -0.80800
H1623       H  0.21185593  0.81372440  0.59279484     0.34000
H1624       H  0.17934294  0.79374256  0.60886740     0.38500
H1625       H  0.27249925  0.72623565  0.64831532     0.34000
H1626       H  0.25720670  0.70019014  0.62919009     0.30700
H1627       H  0.19968418  0.68398810  0.56817571     0.34000
H1628       H  0.19849273  0.68742636  0.59113606     0.30700
H1629       H  0.37666237  0.76539600  0.57426039     0.38500
H1630       H  0.37546368  0.76709815  0.59722168     0.34000
C1631       C  0.05355958  0.77740733  0.63701433    -0.19700
C1632       C  0.01683506  0.76449149  0.64262947     0.36500
C1633       C  0.48838457  0.74875568  0.62949903    -0.25700
C1634       C  0.49597831  0.74666081  0.61089369     0.02900
C1635       C  0.03246896  0.76014495  0.60515473     0.27700
C1636       C  0.06081632  0.77516066  0.61825362    -0.24800
N1637       N  0.00853629  0.76808903  0.66144410    -0.82200
H1638       H  0.46016699  0.73882437  0.63368182     0.13500
C1639       C  0.46542874  0.73105631  0.59747898     0.02900
N1640       N  0.04051117  0.75847618  0.58605267    -0.80800
H1641       H  0.08879688  0.78501774  0.61370692     0.18400
C1642       C  0.46448157  0.75398333  0.58363619    -0.25600
C1643       C  0.43521152  0.74081484  0.57114027     0.36400
C1644       C  0.40633089  0.70343501  0.57246777    -0.19700
C1645       C  0.40725181  0.68078041  0.58648167    -0.24900
C1646       C  0.43688923  0.69396308  0.59878051     0.27800
H1647       H  0.48625075  0.78271949  0.58285868     0.13500
N1648       N  0.43496848  0.76682427  0.55820249    -0.82200
H1649       H  0.38484162  0.65252296  0.58775047     0.18400
N1650       N  0.43830643  0.66986726  0.61252138    -0.80800
H1651       H  0.45677688  0.77423191  0.54906524     0.34000
H1652       H  0.41070488  0.75553261  0.55053413     0.38500
H1653       H  0.41506897  0.64339499  0.61162323     0.34000
H1654       H  0.46104044  0.66671836  0.60958959     0.30700
H1655       H  0.06884242  0.76992703  0.58406328     0.34000
H1656       H  0.02822622  0.73048180  0.58230807     0.30700
H1657       H  0.02041024  0.79645309  0.66430318     0.38500
H1658       H  0.98015275  0.75665658  0.66323617     0.34000
C1659       C  0.22022338  0.95567145  0.63933638    -0.19700
C1660       C  0.24472013  0.99231981  0.64548733     0.36500
C1661       C  0.25780927  0.02186662  0.63284093    -0.25700
C1662       C  0.24756756  0.51551373  0.61436343     0.02900
C1663       C  0.22236204  0.97927354  0.60822094     0.27700
C1664       C  0.20913323  0.94986400  0.62074190    -0.24800
N1665       N  0.25689290  0.99944135  0.66431622    -0.82200
H1666       H  0.27703562  0.55000534  0.63746586     0.13500
C1667       C  0.26445681  0.54613297  0.60094762     0.02900
N1668       N  0.21109299  0.97264361  0.58923941    -0.80800
H1669       H  0.19011791  0.92212153  0.61581977     0.18400
C1670       C  0.29184325  0.54790913  0.58926968    -0.25600
C1671       C  0.30762061  0.57532059  0.57567187     0.36400
C1672       C  0.29484838  0.60072159  0.57338551    -0.19700
C1673       C  0.26766980  0.59915329  0.58524182    -0.24900
C1674       C  0.25217417  0.57190478  0.59900210     0.27800
H1675       H  0.30115295  0.52797159  0.59093900     0.13500
N1676       N  0.33714209  0.57796946  0.56456780    -0.82200
H1677       H  0.25872016  0.61941910  0.58378325     0.18400
N1678       N  0.22412602  0.57023897  0.61098537    -0.80800
H1679       H  0.34299189  0.55697862  0.56790477     0.34000
H1680       H  0.36069531  0.60305230  0.56775596     0.38500
H1681       H  0.21842405  0.59141299  0.60783184     0.34000
H1682       H  0.19995475  0.54516029  0.60839262     0.30700
H1683       H  0.19292321  0.94441107  0.58689355     0.34000
H1684       H  0.19717561  0.48639037  0.58641277     0.30700
H1685       H  0.27322368  0.98729678  0.66658248     0.38500
H1686       H  0.27388881  0.02791884  0.66660016     0.34000
C1687       C  0.21052169  0.80068784  0.49134604    -0.19700
C1688       C  0.19706092  0.77510589  0.50596079     0.36500
C1689       C  0.21867921  0.76071996  0.51306180    -0.25700
C1690       C  0.25345671  0.77114271  0.50566819     0.02900
C1691       C  0.26740976  0.79733493  0.49133904     0.27700
C1692       C  0.24611207  0.81233104  0.48457320    -0.24800
N1693       N  0.16097596  0.76258655  0.51317250    -0.82200
H1694       H  0.20791619  0.74063942  0.52412299     0.13500
C1695       C  0.27449876  0.75370185  0.51281265     0.02900
N1696       N  0.30253158  0.80758680  0.48328288    -0.80800
H1697       H  0.25694286  0.83253982  0.47357667     0.18400
C1698       C  0.26823859  0.71986510  0.50534026    -0.25600
C1699       C  0.28466255  0.70043145  0.51307718     0.36400
C1700       C  0.30826514  0.71550317  0.52848720    -0.19700
C1701       C  0.31733759  0.75137258  0.53454827    -0.24900
C1702       C  0.29968614  0.76989932  0.52740201     0.27800
H1703       H  0.24930412  0.70790122  0.49387088     0.13500
N1704       N  0.27649865  0.66512835  0.50562186    -0.82200
H1705       H  0.33702961  0.76431132  0.54562046     0.18400
N1706       N  0.30581574  0.80412542  0.53552556    -0.80800
H1707       H  0.25931903  0.65845105  0.49411138     0.34000
H1708       H  0.26153532  0.64518599  0.51552344     0.38500
H1709       H  0.32402223  0.81155855  0.54665281     0.34000
H1710       H  0.31863690  0.82507873  0.52573361     0.30700
H1711       H  0.30829419  0.82632296  0.47250880     0.34000
H1712       H  0.32279454  0.82158656  0.49327813     0.30700
H1713       H  0.16354934  0.76882925  0.52722476     0.38500
H1714       H  0.14574139  0.73371944  0.51172718     0.34000
C1715       C  0.29409352  0.59409913  0.53162986    -0.19700
C1716       C  0.25529969  0.57177177  0.53022008     0.36500
C1717       C  0.23986880  0.53581903  0.52270627    -0.25700
C1718       C  0.26148945  0.51930749  0.51867585     0.02900
C1719       C  0.30028425  0.54183209  0.52067229     0.27700
C1720       C  0.31592675  0.57927991  0.52586777    -0.24800
N1721       N  0.23059240  0.58384817  0.53680218    -0.82200
H1722       H  0.21039594  0.52045981  0.52054080     0.13500
C1723       C  0.24321690  0.97912263  0.51237737     0.02900
N1724       N  0.32414177  0.52659701  0.51865619    -0.80800
H1725       H  0.34555046  0.59592000  0.52711185     0.18400
C1726       C  0.26098289  0.96812599  0.49942771    -0.25600
C1727       C  0.24498730  0.93129840  0.49322021     0.36400
C1728       C  0.20774280  0.90627438  0.49702513    -0.19700
C1729       C  0.19000053  0.91591446  0.51042723    -0.24900
C1730       C  0.20806235  0.95135038  0.51889366     0.27800
H1731       H  0.28729194  0.98807397  0.49374433     0.13500
N1732       N  0.26642437  0.91909856  0.48305536    -0.82200
H1733       H  0.16191948  0.89598620  0.51413372     0.18400
N1734       N  0.19078433  0.95895839  0.53404785    -0.80800
H1735       H  0.29356114  0.94072554  0.48159149     0.34000
H1736       H  0.26754742  0.89850092  0.49079854     0.38500
H1737       H  0.16539937  0.93565639  0.53712938     0.34000
H1738       H  0.20758287  0.96420361  0.54560742     0.30700
H1739       H  0.33813173  0.53017917  0.53108948     0.34000
H1740       H  0.34357151  0.04178381  0.50854761     0.30700
H1741       H  0.24471016  0.61046696  0.54247862     0.38500
H1742       H  0.21556791  0.58491222  0.52555285     0.34000
C1743       C  0.09443387  0.78931963  0.49655364    -0.19700
C1744       C  0.07054316  0.75146112  0.49233348     0.36500
C1745       C  0.03509996  0.73269576  0.50013897    -0.25700
C1746       C  0.02310382  0.75096744  0.51212413     0.02900
C1747       C  0.04829161  0.78762478  0.51780709     0.27700
C1748       C  0.08385612  0.80644398  0.51000023    -0.24800
N1749       N  0.08194271  0.73269350  0.47956107    -0.82200
H1750       H  0.01617898  0.70415827  0.49627393     0.13500
C1751       C  0.48380968  0.73171790  0.51811542     0.02900
N1752       N  0.03714558  0.80595016  0.53097325    -0.80800
H1753       H  0.10240395  0.83526963  0.51348064     0.18400
C1754       C  0.47110914  0.70173498  0.53026887    -0.25600
C1755       C  0.43447816  0.68349456  0.53658183     0.36400
C1756       C  0.41019665  0.69624324  0.53112879    -0.19700
C1757       C  0.42204733  0.72422376  0.51779777    -0.24900
C1758       C  0.45863074  0.74207505  0.51121143     0.27800
H1759       H  0.48999271  0.69277185  0.53497623     0.13500
N1760       N  0.42192062  0.65229074  0.54871527    -0.82200
H1761       H  0.40339020  0.73363822  0.51331746     0.18400
N1762       N  0.47021175  0.77043807  0.49742460    -0.80800
H1763       H  0.44336494  0.64725327  0.55195920     0.34000
H1764       H  0.40233335  0.62898369  0.54151974     0.38500
H1765       H  0.44800855  0.77344758  0.49313192     0.34000
H1766       H  0.48914973  0.79565969  0.50349665     0.30700
H1767       H  0.05860326  0.83294869  0.53349168     0.34000
H1768       H  0.03195335  0.79155984  0.54339556     0.30700
H1769       H  0.10463741  0.73225185  0.48526425     0.38500
H1770       H  0.06125416  0.70503605  0.47787155     0.34000
C1771       C  0.83529526  0.17163114  0.56808152     0.45600
H1772       H  0.83488773  0.17274593  0.58336461    -0.03400
C1773       C  0.83625712  0.16873208  0.53229729     0.45600
H1774       H  0.83702420  0.16734307  0.51707213    -0.03400
C1775       C  0.87382751  0.18707271  0.56014472    -0.17100
C1776       C  0.81289527  0.13239200  0.56050033    -0.16900
C1777       C  0.81977045  0.19366370  0.55885361    -0.17300
C1778       C  0.87490766  0.18461279  0.54132736    -0.17200
C1779       C  0.81263887  0.13026842  0.54164062    -0.16800
C1780       C  0.82053042  0.19330458  0.53988191    -0.17100
C1781       C  0.66803618  0.33203637  0.49284441     0.45600
H1782       H  0.66988552  0.33062554  0.50802967    -0.03400
C1783       C  0.66415489  0.33599050  0.45721590     0.45600
H1784       H  0.66208692  0.33798025  0.44208846    -0.03400
C1785       C  0.68736854  0.31414718  0.48216786    -0.17100
C1786       C  0.62800952  0.31228035  0.48520374    -0.16900
C1787       C  0.68665856  0.37225219  0.48547101    -0.17300
C1788       C  0.68436258  0.31545143  0.46326837    -0.17200
C1789       C  0.62641931  0.31543064  0.46640975    -0.16800
C1790       C  0.68422907  0.37385386  0.46669730    -0.17100
Zn1791     Zn  0.61763476  0.30790660  0.68859565     1.49700
Zn1792     Zn  0.69380849  0.38667402  0.68894761     1.49400
Zn1793     Zn  0.69481037  0.30966434  0.68650755     1.49100
Zn1794     Zn  0.66788270  0.33902956  0.65315569     1.49500
O1795       O  0.66838711  0.33571714  0.67956494    -1.84000
O1796       O  0.60786047  0.34059261  0.70548101    -0.74600
O1797       O  0.73838446  0.39583062  0.70328899    -0.74400
O1798       O  0.66402366  0.26598863  0.70300118    -0.74000
O1799       O  0.66097260  0.39390164  0.70633459    -0.74600
O1800       O  0.61027737  0.26434044  0.70417017    -0.74200
O1801       O  0.73965387  0.34313122  0.70126664    -0.74800
O1802       O  0.69463281  0.31658099  0.64150769    -0.74200
O1803       O  0.70969902  0.42592175  0.66896335    -0.75000
O1804       O  0.71113484  0.29254598  0.66418564    -0.74400
O1805       O  0.69072944  0.39074931  0.64405420    -0.74800
O1806       O  0.61720522  0.31232001  0.64330823    -0.74700
O1807       O  0.58042955  0.28931290  0.66742491    -0.74500
C1808       C  0.62778143  0.37361739  0.71150022     0.77300
C1809       C  0.75308109  0.37622553  0.70716233     0.77800
C1810       C  0.63121324  0.25170760  0.70900858     0.76700
C1811       C  0.70966596  0.29841238  0.64708078     0.77100
C1812       C  0.70631186  0.42262230  0.65154793     0.78200
C1813       C  0.58514630  0.29380053  0.65007395     0.77300
C1814       C  0.50094170  0.99958536  0.79022749     0.45600
H1815       H  0.50201456  0.99971329  0.77494288    -0.03400
C1816       C  0.49880890  0.99884801  0.82608999     0.45600
H1817       H  0.49759843  0.99862423  0.84133157    -0.03400
C1818       C  0.96210800  0.48305965  0.79787609    -0.17100
C1819       C  0.51667101  0.47717496  0.79898303    -0.16900
C1820       C  0.52238771  0.03811809  0.79879644    -0.17300
C1821       C  0.96043044  0.48260350  0.81674051    -0.17200
C1822       C  0.51554192  0.47622703  0.81786689    -0.16800
C1823       C  0.52235826  0.03805937  0.81771529    -0.17100
C1824       C  0.66655867  0.33252210  0.86417395     0.45600
H1825       H  0.66629636  0.33177067  0.84890772    -0.03400
C1826       C  0.66767631  0.33494688  0.89999594     0.45600
H1827       H  0.66791041  0.33568418  0.91527722    -0.03400
C1828       C  0.64262597  0.34777303  0.87257528    -0.17100
C1829       C  0.65197477  0.29391677  0.87339276    -0.16900
C1830       C  0.70557753  0.35740144  0.87243625    -0.17300
C1831       C  0.64415064  0.34961239  0.89147001    -0.17200
C1832       C  0.65224516  0.29581472  0.89232916    -0.16800
C1833       C  0.70574144  0.35770774  0.89136510    -0.17100
C1834       C  0.83361499  0.16553764  0.12279338     0.45600
H1835       H  0.83548085  0.16672428  0.10752349    -0.03400
C1836       C  0.82945063  0.16356704  0.15855719     0.45600
H1837       H  0.82767999  0.16295201  0.17380612    -0.03400
C1838       C  0.79420757  0.14807415  0.12989153    -0.17100
C1839       C  0.84930500  0.14304450  0.13148617    -0.16900
C1840       C  0.85420538  0.20364455  0.13180891    -0.17300
C1841       C  0.79166703  0.14799544  0.14879479    -0.17200
C1842       C  0.84641240  0.14073376  0.15039805    -0.16800
C1843       C  0.85251428  0.20319919  0.15061143    -0.17100
C1844       C  0.99825790  0.49921902  0.19784858     0.45600
H1845       H  0.99643155  0.49864978  0.18260996    -0.03400
C1846       C  0.00248759  0.50161706  0.23367033     0.45600
H1847       H  0.50455476  0.50309236  0.24893340    -0.03400
C1848       C  0.97836739  0.01799400  0.20703512    -0.17100
C1849       C  0.98046414  0.46019521  0.20700644    -0.16900
C1850       C  0.53828962  0.02063506  0.20555286    -0.17300
C1851       C  0.98055142  0.01869558  0.22583323    -0.17200
C1852       C  0.98413605  0.46211252  0.22597551    -0.22500
C1853       C  0.53987763  0.02178514  0.22436774    -0.17100
Zn1854     Zn  0.85763983  0.21688815  0.35461642     1.49700
Zn1855     Zn  0.83370233  0.16507536  0.31923825     1.49400
Zn1856     Zn  0.85822872  0.13988380  0.35531820     1.49100
Zn1857     Zn  0.78070646  0.13911563  0.35315450     1.49500
O1858       O  0.83270534  0.16530062  0.34579801    -1.84000
O1859       O  0.87662209  0.25371812  0.33340652    -0.74600
O1860       O  0.85904437  0.13888442  0.30995083    -0.74400
O1861       O  0.90078810  0.17391495  0.37170809    -0.74000
O1862       O  0.86050840  0.21624841  0.30923648    -0.74600
O1863       O  0.90093336  0.22746744  0.37094197    -0.74200
O1864       O  0.87706835  0.12050493  0.33451590    -0.74800
O1865       O  0.77101458  0.09767492  0.37036848    -0.74200
O1866       O  0.78345072  0.13936279  0.30808171    -0.75000
O1867       O  0.82432779  0.09820173  0.37204171    -0.74400
O1868       O  0.74511148  0.11810920  0.33157603    -0.74800
O1869       O  0.76902055  0.17291508  0.36786349    -0.74700
O1870       O  0.82274511  0.22531623  0.37040805    -0.74500
C1871       C  0.87603943  0.24876903  0.31605944     0.77300
C1872       C  0.87490597  0.12265159  0.31709027     0.77800
C1873       C  0.91411874  0.20757935  0.37675872     0.76700
C1874       C  0.79100194  0.08540386  0.37699942     0.77100
C1875       C  0.75082720  0.12140024  0.31430154     0.78200
C1876       C  0.78870408  0.20549684  0.37438640     0.77300
Zn1877     Zn  0.54949428  0.02150179  0.00197182     1.49700
Zn1878     Zn  0.97460118  0.02519950  0.00288664     1.49400
Zn1879     Zn  0.97120482  0.44641076  0.00424578     1.49100
Zn1880     Zn  0.00099615  0.00031608  0.03836463     1.49500
O1881       O  0.99914363  0.49848249  0.01174674    -1.84000
O1882       O  0.55936224  0.06480518  0.98553786    -0.74600
O1883       O  0.93333541  0.49262071  0.98551249    -0.74400
O1884       O  0.50279867  0.43272053  0.98919467    -0.74000
O1885       O  0.50949097  0.07027861  0.98819494    -0.74600
O1886       O  0.55672021  0.48452025  0.98697265    -0.74200
O1887       O  0.92925046  0.43751766  0.98758531    -0.74800
O1888       O  0.97845529  0.44976513  0.04959845    -0.74200
O1889       O  0.95342451  0.04100360  0.02395776    -0.75000
O1890       O  0.95210732  0.41164002  0.02605239    -0.74400
O1891       O  0.97222470  0.02276293  0.04835033    -0.74800
O1892       O  0.55269338  0.03016989  0.04739198    -0.74700
O1893       O  0.58750072  0.04182610  0.02250718    -0.74500
C1894       C  0.54161673  0.08155995  0.98176217     0.77300
C1895       C  0.91835686  0.45858436  0.98077793     0.77800
C1896       C  0.53553268  0.45032508  0.98306409     0.76700
C1897       C  0.95855857  0.41712206  0.04323787     0.77100
C1898       C  0.95472021  0.03740679  0.04131495     0.78200
C1899       C  0.58414456  0.04428770  0.03980092     0.77300
C1900       C  0.57399810  0.03691216  0.23542550    -0.19700
C1901       C  0.59456689  0.07483218  0.23999266     0.36500
C1902       C  0.62432872  0.08715784  0.25222855    -0.25700
C1903       C  0.63331156  0.06198830  0.26020784     0.02900
C1904       C  0.61311209  0.02410932  0.25546127     0.27700
C1905       C  0.58330646  0.01184905  0.24322336    -0.24800
N1906       N  0.58448164  0.10062041  0.23285761    -0.82200
H1907       H  0.63984313  0.11630450  0.25593453     0.13500
C1908       C  0.66328948  0.07561561  0.27394594     0.02900
N1909       N  0.62273422  0.99832381  0.26327706    -0.80800
H1910       H  0.56678718  0.98253989  0.24001997     0.18400
C1911       C  0.65458166  0.06834659  0.29263152    -0.25600
C1912       C  0.68228737  0.08274389  0.30622380     0.36400
C1913       C  0.71967102  0.10460133  0.30086584    -0.19700
C1914       C  0.72797336  0.11076814  0.28194872    -0.24900
C1915       C  0.70022212  0.09651470  0.26849748     0.27800
H1916       H  0.62592538  0.05200903  0.29661679     0.13500
N1917       N  0.67236170  0.07516652  0.32529532    -0.82200
H1918       H  0.75632588  0.12702558  0.27751654     0.18400
N1919       N  0.70930946  0.10323942  0.24929671    -0.80800
H1920       H  0.64408080  0.05687643  0.32665942     0.34000
H1921       H  0.67749257  0.10007545  0.33144507     0.38500
H1922       H  0.73780856  0.11930009  0.24754325     0.34000
H1923       H  0.70119434  0.07760163  0.24304078     0.30700
H1924       H  0.60498743  0.97144847  0.25843427     0.34000
H1925       H  0.64905971  0.00559760  0.25856752     0.30700
H1926       H  0.60733295  0.12156169  0.22601698     0.38500
H1927       H  0.57878659  0.11290980  0.24399256     0.34000
C1928       C  0.97030364  0.43005536  0.23889484    -0.19700
C1929       C  0.97858480  0.40092371  0.23726833     0.36500
C1930       C  0.96282888  0.37122159  0.24970994    -0.25700
C1931       C  0.93998229  0.37038184  0.26403825     0.02900
C1932       C  0.93258145  0.39971981  0.26596084     0.27700
C1933       C  0.94826846  0.42937655  0.25358997    -0.24800
N1934       N  0.00412626  0.40129304  0.22397964    -0.82200
H1935       H  0.96923176  0.34904262  0.24848169     0.13500
C1936       C  0.92446138  0.33910882  0.27724982     0.02900
N1937       N  0.90884825  0.39908503  0.28040781    -0.80800
H1938       H  0.94295960  0.45206027  0.25542996     0.18400
C1939       C  0.93292422  0.34629706  0.29602827    -0.25600
C1940       C  0.91762592  0.31761605  0.30910719     0.36400
C1941       C  0.89341088  0.28077920  0.30318768    -0.19700
C1942       C  0.88546807  0.27384279  0.28427490    -0.24900
C1943       C  0.90035714  0.30257636  0.27133461     0.27800
H1944       H  0.95159506  0.37452007  0.30047414     0.13500
N1945       N  0.92676908  0.32593408  0.32824799    -0.82200
H1946       H  0.86674829  0.24589347  0.27950549     0.18400
N1947       N  0.89001200  0.29501535  0.25229249    -0.80800
H1948       H  0.94382373  0.35449486  0.33024956     0.34000
H1949       H  0.94215622  0.31352625  0.33216528     0.38500
H1950       H  0.87281492  0.26654354  0.25009006     0.34000
H1951       H  0.87423493  0.30746365  0.24932705     0.30700
H1952       H  0.90633021  0.42288149  0.27997831     0.34000
H1953       H  0.88256516  0.37651684  0.27792525     0.30700
H1954       H  0.01682839  0.42597701  0.21658684     0.38500
H1955       H  0.98930551  0.37968635  0.21463864     0.34000
C1956       C  0.89049447  0.10607983  0.30438288    -0.19700
C1957       C  0.92233245  0.10389914  0.30860026     0.36500
C1958       C  0.93730768  0.09089269  0.29510768    -0.25700
C1959       C  0.92078452  0.07959153  0.27771129     0.02900
C1960       C  0.88890178  0.08138657  0.27356389     0.27700
C1961       C  0.87410656  0.09454027  0.28691148    -0.24800
N1962       N  0.94001897  0.11591776  0.32622699    -0.82200
H1963       H  0.96172996  0.08916082  0.29819655     0.13500
C1964       C  0.93621163  0.06466984  0.26404817     0.02900
N1965       N  0.87188903  0.07009521  0.25572820    -0.80800
H1966       H  0.84964270  0.09601861  0.28357267     0.18400
C1967       C  0.91449040  0.02783252  0.25814030    -0.25600
C1968       C  0.92743488  0.01238903  0.24508517     0.36400
C1969       C  0.96347171  0.03429165  0.23802238    -0.19700
C1970       C  0.98498119  0.07132281  0.24367117    -0.24900
C1971       C  0.97160138  0.08690082  0.25656964     0.27800
H1972       H  0.88715078  0.01084371  0.26379787     0.13500
N1973       N  0.90316650  0.47458232  0.23943487    -0.82200
H1974       H  0.51232415  0.08801626  0.23802523     0.18400
N1975       N  0.99362841  0.12509740  0.26206076    -0.80800
H1976       H  0.88015557  0.47328464  0.23306007     0.34000
H1977       H  0.91546432  0.46561852  0.22979021     0.38500
H1978       H  0.51901774  0.13750183  0.25530657     0.34000
H1979       H  0.97999269  0.13905736  0.25769795     0.30700
H1980       H  0.84848362  0.07292729  0.25490065     0.34000
H1981       H  0.89054909  0.08823158  0.24601859     0.30700
H1982       H  0.92258487  0.09686171  0.33600177     0.38500
H1983       H  0.96435750  0.11470152  0.32658686     0.34000
C1984       C  0.87142169  0.23742180  0.12043365    -0.19700
C1985       C  0.90288780  0.24622639  0.10991304     0.36500
C1986       C  0.91652485  0.27635617  0.09777418    -0.25700
C1987       C  0.89894233  0.29734781  0.09594764     0.02900
C1988       C  0.86738380  0.28851192  0.10641965     0.27700
C1989       C  0.85370068  0.25829992  0.11852618    -0.24800
N1990       N  0.92039030  0.22412125  0.11140517    -0.82200
H1991       H  0.94067250  0.28332168  0.08954968     0.13500
C1992       C  0.91368387  0.32814634  0.08269359     0.02900
N1993       N  0.84910914  0.30982039  0.10442707    -0.80800
H1994       H  0.82864533  0.25039501  0.12611715     0.18400
C1995       C  0.89796526  0.32215502  0.06514057    -0.25600
C1996       C  0.91236455  0.35028732  0.05178777     0.36400
C1997       C  0.94286912  0.38544038  0.05632645    -0.19700
C1998       C  0.95822443  0.39112718  0.07412231    -0.24900
C1999       C  0.94397270  0.36278738  0.08731276     0.27800
H2000       H  0.87467956  0.29517929  0.06179539     0.13500
N2001       N  0.89563468  0.34327942  0.03385789    -0.82200
H2002       H  0.98160487  0.41778496  0.07778814     0.18400
N2003       N  0.96022252  0.36884016  0.10533978    -0.80800
H2004       H  0.87187260  0.31713832  0.03338195     0.34000
H2005       H  0.91406041  0.34208995  0.02457146     0.38500
H2006       H  0.98257346  0.39581229  0.10651895     0.34000
H2007       H  0.94056463  0.36670895  0.11485730     0.30700
H2008       H  0.82603426  0.29937500  0.11297994     0.34000
H2009       H  0.86725765  0.33678894  0.10901229     0.30700
H2010       H  0.93135383  0.22799161  0.12467110     0.38500
H2011       H  0.94262552  0.23364792  0.10234512     0.34000
C2012       C  0.76296028  0.13361581  0.11666688    -0.19700
C2013       C  0.73451445  0.09589694  0.11610862     0.36500
C2014       C  0.70725890  0.08438134  0.10253271    -0.25700
C2015       C  0.70769887  0.10927565  0.08947522     0.02900
C2016       C  0.73573989  0.14667115  0.08991994     0.27700
C2017       C  0.76326137  0.15843205  0.10346291    -0.24800
N2018       N  0.73291846  0.06813847  0.12842092    -0.82200
H2019       H  0.68559256  0.05555071  0.10206030     0.13500
C2020       C  0.67801893  0.09556107  0.07562106     0.02900
N2021       N  0.73606201  0.17242066  0.07664348    -0.80800
H2022       H  0.78507357  0.18719353  0.10379321     0.18400
C2023       C  0.64798635  0.10081823  0.07869873    -0.25600
C2024       C  0.61756250  0.08531223  0.06676930     0.36400
C2025       C  0.61724176  0.06392627  0.05153767    -0.19700
C2026       C  0.64812356  0.06003259  0.04805056    -0.24900
C2027       C  0.67857185  0.07560350  0.06005473     0.27800
H2028       H  0.64806187  0.11650188  0.09065126     0.13500
N2029       N  0.58696830  0.09115912  0.07005752    -0.82200
H2030       H  0.64795552  0.04380815  0.03631929     0.18400
N2031       N  0.70966116  0.07057015  0.05681176    -0.80800
H2032       H  0.59148473  0.10729996  0.08186937     0.34000
H2033       H  0.58553315  0.10650837  0.05902676     0.38500
H2034       H  0.70562292  0.05490685  0.04486823     0.34000
H2035       H  0.73250523  0.09675068  0.05439919     0.30700
H2036       H  0.75843445  0.19899696  0.07897986     0.34000
H2037       H  0.74008148  0.16408143  0.06368290     0.30700
H2038       H  0.75509805  0.07895457  0.13745564     0.38500
H2039       H  0.70924721  0.05883669  0.13645001     0.34000
C2040       C  0.86415044  0.12482654  0.11932552    -0.19700
C2041       C  0.90098525  0.13203120  0.12021478     0.36500
C2042       C  0.91316906  0.11579823  0.10713682    -0.25700
C2043       C  0.88996119  0.09343468  0.09298346     0.02900
C2044       C  0.85339330  0.08603045  0.09204583     0.27700
C2045       C  0.84085924  0.10179876  0.10523942    -0.24800
N2046       N  0.92744632  0.15711051  0.13330846    -0.82200
H2047       H  0.94141816  0.12158899  0.10768500     0.13500
C2048       C  0.90470781  0.07850734  0.07904393     0.02900
N2049       N  0.82923374  0.06257865  0.07771962    -0.80800
H2050       H  0.81272904  0.09633014  0.10448103     0.18400
C2051       C  0.90136539  0.04369110  0.08191273    -0.25600
C2052       C  0.91670935  0.02933194  0.06945845     0.36400
C2053       C  0.93563260  0.05032815  0.05381279    -0.19700
C2054       C  0.93802070  0.08478480  0.05070713    -0.24900
C2055       C  0.92299212  0.09929107  0.06332418     0.27800
H2056       H  0.88712430  0.02794390  0.09403211     0.13500
N2057       N  0.91325670  0.49372191  0.07268786    -0.82200
H2058       H  0.95273643  0.10093383  0.03877331     0.18400
N2059       N  0.92714605  0.13544753  0.06058575    -0.80800
H2060       H  0.89884950  0.48213572  0.08486712     0.34000
H2061       H  0.89734157  0.47610901  0.06199963     0.38500
H2062       H  0.94193454  0.14742676  0.04854716     0.34000
H2063       H  0.90090758  0.13203568  0.05862048     0.30700
H2064       H  0.80304087  0.05957773  0.07913904     0.34000
H2065       H  0.83957836  0.07596755  0.06517005     0.30700
H2066       H  0.91690607  0.17051352  0.14121525     0.38500
H2067       H  0.93392371  0.14146501  0.14222449     0.34000
C2068       C  0.85842698  0.11855434  0.16173293    -0.19700
C2069       C  0.84783334  0.08113424  0.15746710     0.36500
C2070       C  0.86663795  0.06481657  0.16552191    -0.25700
C2071       C  0.89446774  0.08369760  0.17862072     0.02900
C2072       C  0.90242653  0.11951308  0.18436597     0.27700
C2073       C  0.88436400  0.13655582  0.17583026    -0.24800
N2074       N  0.81753000  0.05829727  0.14549374    -0.82200
H2075       H  0.85971843  0.03710868  0.16118563     0.13500
C2076       C  0.91572954  0.06598052  0.18550078     0.02900
N2077       N  0.92919756  0.13863987  0.19861245    -0.80800
H2078       H  0.89170835  0.16459851  0.17967358     0.18400
C2079       C  0.95439202  0.08571101  0.18457145    -0.25600
C2080       C  0.97540893  0.06965194  0.19037357     0.36400
C2081       C  0.95755043  0.03300205  0.19703479    -0.19700
C2082       C  0.91898531  0.01259769  0.19706888    -0.24900
C2083       C  0.89786815  0.02887410  0.19183565     0.27800
H2084       H  0.96825122  0.11371371  0.17917630     0.13500
N2085       N  0.51484362  0.09050147  0.18966332    -0.82200
H2086       H  0.90531197  0.48413037  0.20158079     0.18400
N2087       N  0.85841910  0.00816276  0.19340267    -0.80800
H2088       H  0.52385887  0.11747196  0.18500289     0.34000
H2089       H  0.52294019  0.07775854  0.17974704     0.38500
H2090       H  0.84970026  0.48132227  0.19810784     0.34000
H2091       H  0.85084399  0.02137541  0.20331183     0.30700
H2092       H  0.93201459  0.16472158  0.20114204     0.34000
H2093       H  0.91910206  0.12331839  0.21071666     0.30700
H2094       H  0.80435523  0.07233154  0.14085065     0.38500
H2095       H  0.82788413  0.05130903  0.13402395     0.34000
C2096       C  0.57240419  0.03858239  0.19428564    -0.19700
C2097       C  0.59081968  0.01929339  0.18927153     0.36500
C2098       C  0.62629214  0.03886289  0.18156498    -0.25700
C2099       C  0.64496235  0.07778109  0.18005170     0.02900
C2100       C  0.62650465  0.09706293  0.18530229     0.27700
C2101       C  0.59020592  0.07710272  0.19187134    -0.24800
N2102       N  0.57421617  0.98024332  0.19279582    -0.82200
H2103       H  0.64000522  0.02379243  0.17735815     0.13500
C2104       C  0.68385744  0.09791139  0.17329698     0.02900
N2105       N  0.64520236  0.13695485  0.18480811    -0.80800
H2106       H  0.57675019  0.09210181  0.19642297     0.18400
C2107       C  0.69407299  0.12544480  0.15981405    -0.25600
C2108       C  0.73034149  0.14568092  0.15345944     0.36400
C2109       C  0.75618351  0.13480813  0.15875683    -0.19700
C2110       C  0.74659951  0.10825733  0.17268459    -0.24900
C2111       C  0.71106557  0.09057499  0.18044366     0.27800
H2112       H  0.67388628  0.13199599  0.15438892     0.13500
N2113       N  0.73997685  0.17736119  0.14195561    -0.82200
H2114       H  0.76662011  0.10066681  0.17722185     0.18400
N2115       N  0.70255892  0.06532068  0.19554778    -0.80800
H2116       H  0.73377795  0.19527068  0.14925373     0.34000
H2117       H  0.76835288  0.19262278  0.13983519     0.38500
H2118       H  0.72560424  0.06323053  0.19922418     0.34000
H2119       H  0.69635103  0.07671258  0.20689497     0.30700
H2120       H  0.62776647  0.14676154  0.18910494     0.34000
H2121       H  0.66683722  0.14684294  0.19431419     0.30700
H2122       H  0.57296208  0.47682056  0.20701891     0.38500
H2123       H  0.59092594  0.47003770  0.18789208     0.34000
C2124       C  0.86852934  0.23814479  0.16161575    -0.19700
C2125       C  0.90626671  0.25793829  0.16664999     0.36500
C2126       C  0.92155238  0.29427092  0.17358996    -0.25700
C2127       C  0.90045812  0.31186777  0.17532812     0.02900
C2128       C  0.86289618  0.29202577  0.17033788     0.27700
C2129       C  0.84713870  0.25520106  0.16403004    -0.24800
N2130       N  0.93018154  0.24268289  0.16441398    -0.82200
H2131       H  0.95044298  0.30916934  0.17738420     0.13500
C2132       C  0.91845639  0.35106694  0.18212458     0.02900
N2133       N  0.84111634  0.30981329  0.17065695    -0.80800
H2134       H  0.81846396  0.24064348  0.15986838     0.18400
C2135       C  0.95065053  0.37858218  0.17358914    -0.25600
C2136       C  0.97038540  0.41490965  0.18081083     0.36400
C2137       C  0.95780841  0.42422542  0.19686202    -0.19700
C2138       C  0.92390681  0.39748716  0.20434761    -0.24900
C2139       C  0.90498770  0.36098211  0.19758749     0.27800
H2140       H  0.96109999  0.37156290  0.16150959     0.13500
N2141       N  0.00373990  0.44162954  0.17210585    -0.82200
H2142       H  0.91274330  0.40438534  0.21616681     0.18400
N2143       N  0.87324695  0.33358370  0.20717670    -0.80800
H2144       H  0.02121681  0.43045121  0.17138759     0.34000
H2145       H  0.99735189  0.44520993  0.15862932     0.38500
H2146       H  0.88123088  0.33270648  0.22068366     0.34000
H2147       H  0.85384855  0.34242300  0.20757071     0.30700
H2148       H  0.83148123  0.30920007  0.15730891     0.34000
H2149       H  0.81828954  0.29420995  0.17906352     0.30700
H2150       H  0.91597857  0.21583939  0.15910669     0.38500
H2151       H  0.93939932  0.24057104  0.17748970     0.34000
C2152       C  0.88838521  0.44381895  0.96671802    -0.19700
C2153       C  0.86761374  0.40552944  0.96213717     0.36500
C2154       C  0.83948804  0.39358605  0.94888027    -0.25700
C2155       C  0.83211622  0.41886352  0.93978026     0.02900
C2156       C  0.85317177  0.45696975  0.94393245     0.27700
C2157       C  0.88082312  0.46899880  0.95741328    -0.24800
N2158       N  0.87458140  0.37871921  0.97101086    -0.82200
H2159       H  0.82296479  0.36426726  0.94568153     0.13500
C2160       C  0.80105447  0.40476266  0.92656700     0.02900
N2161       N  0.84635773  0.48327242  0.93440443    -0.80800
H2162       H  0.89674043  0.49838245  0.96052599     0.18400
C2163       C  0.77222761  0.41191322  0.92995000    -0.25600
C2164       C  0.74156581  0.39803368  0.91823488     0.36400
C2165       C  0.73929500  0.37572178  0.90306847    -0.19700
C2166       C  0.76815781  0.36852078  0.89969481    -0.24900
C2167       C  0.79938714  0.38342664  0.91110058     0.27800
H2168       H  0.77360186  0.42823593  0.94188624     0.13500
N2169       N  0.71282756  0.40662393  0.92166136    -0.82200
H2170       H  0.76608635  0.35076266  0.88828768     0.18400
N2171       N  0.82935470  0.37698657  0.90709457    -0.80800
H2172       H  0.71842881  0.42277036  0.93355921     0.34000
H2173       H  0.71283952  0.42298520  0.91077846     0.38500
H2174       H  0.82373677  0.36073058  0.89523084     0.34000
H2175       H  0.85243283  0.40269232  0.90414769     0.30700
H2176       H  0.86412498  0.51025160  0.93910600     0.34000
H2177       H  0.85249704  0.48263505  0.92051640     0.30700
H2178       H  0.89982596  0.38285252  0.96613182     0.38500
H2179       H  0.85495704  0.35173549  0.96707958     0.34000
C2180       C  0.55835406  0.11402115  0.96911060    -0.19700
C2181       C  0.54538308  0.13962509  0.96790947     0.36500
C2182       C  0.56069252  0.16824265  0.95479210    -0.25700
C2183       C  0.58892039  0.17220844  0.94303642     0.02900
C2184       C  0.60233429  0.14722736  0.94437872     0.27700
C2185       C  0.58709084  0.11857526  0.95743574    -0.24800
N2186       N  0.51707052  0.13685217  0.98006974    -0.82200
H2187       H  0.55091450  0.18792365  0.95385625     0.13500
C2188       C  0.60483316  0.20324042  0.92966534     0.02900
N2189       N  0.63104582  0.15078871  0.93227674    -0.80800
H2190       H  0.59719061  0.09914674  0.95815982     0.18400
C2191       C  0.64187961  0.23087764  0.93149101    -0.25600
C2192       C  0.65793052  0.26103542  0.91931244     0.36400
C2193       C  0.63649079  0.26345765  0.90498468    -0.19700
C2194       C  0.59936711  0.23589352  0.90318338    -0.24900
C2195       C  0.58332856  0.20566403  0.91535929     0.27800
H2196       H  0.65821073  0.22898261  0.94256562     0.13500
N2197       N  0.69591815  0.28919346  0.92140320    -0.82200
H2198       H  0.58286156  0.23816883  0.89231789     0.18400
N2199       N  0.54536723  0.17742968  0.91328848    -0.80800
H2200       H  0.70772737  0.28355383  0.93273350     0.34000
H2201       H  0.71002728  0.28813402  0.90977380     0.38500
H2202       H  0.53337005  0.18348652  0.90218077     0.34000
H2203       H  0.54473938  0.15259329  0.91003175     0.30700
H2204       H  0.63792635  0.13029989  0.93505465     0.34000
H2205       H  0.62061750  0.14603552  0.91885560     0.30700
H2206       H  0.02787720  0.14213042  0.99341632     0.38500
H2207       H  0.01036161  0.15740934  0.97713301     0.34000
C2208       C  0.54906569  0.43106396  0.97074975    -0.19700
C2209       C  0.52473490  0.39966164  0.96003904     0.36500
C2210       C  0.53923956  0.38521911  0.94709854    -0.25700
C2211       C  0.57730371  0.40062756  0.94498176     0.02900
C2212       C  0.60156251  0.43044911  0.95633831     0.27700
C2213       C  0.58724166  0.44570409  0.96889015    -0.24800
N2214       N  0.48547372  0.38330660  0.96175737    -0.82200
H2215       H  0.52077552  0.36216222  0.93838460     0.13500
C2216       C  0.59164902  0.38635824  0.93035777     0.02900
N2217       N  0.64067244  0.44518466  0.95497617    -0.80800
H2218       H  0.60605522  0.46923609  0.97724709     0.18400
C2219       C  0.61447984  0.41093620  0.91680505    -0.25600
C2220       C  0.63141514  0.40000918  0.90358754     0.36400
C2221       C  0.62441308  0.36288217  0.90354419    -0.19700
C2222       C  0.60036367  0.33791988  0.91672309    -0.24900
C2223       C  0.58394258  0.34925696  0.93016424     0.27800
H2224       H  0.62029000  0.43945333  0.91691160     0.13500
N2225       N  0.65718210  0.42814861  0.89145212    -0.82200
H2226       H  0.59505712  0.30957313  0.91675805     0.18400
N2227       N  0.56033387  0.32358205  0.94388464    -0.80800
H2228       H  0.64237827  0.43608628  0.88279717     0.34000
H2229       H  0.67058594  0.41824233  0.88317867     0.38500
H2230       H  0.55738804  0.29733742  0.94173548     0.34000
H2231       H  0.57332891  0.33292473  0.95664067     0.30700
H2232       H  0.65486728  0.96735704  0.96414722     0.34000
H2233       H  0.64615382  0.42421471  0.95891106     0.30700
H2234       H  0.97805546  0.36998818  0.97450573     0.38500
H2235       H  0.97184243  0.36248404  0.95188344     0.34000
C2236       C  0.62033140  0.35976498  0.86159582    -0.19700
C2237       C  0.58196636  0.34453831  0.86451144     0.36500
C2238       C  0.56413788  0.36270743  0.85732885    -0.25700
C2239       C  0.58336320  0.39560427  0.84723152     0.02900
C2240       C  0.62093792  0.40937074  0.84320489     0.27700
C2241       C  0.63891830  0.39095595  0.85021815    -0.24800
N2242       N  0.56013254  0.31072650  0.87456438    -0.82200
H2243       H  0.53507332  0.35150833  0.86008728     0.13500
C2244       C  0.56365915  0.41524619  0.84107423     0.02900
N2245       N  0.64083278  0.44246399  0.83240640    -0.80800
H2246       H  0.66817163  0.40248472  0.84788810     0.18400
C2247       C  0.57574592  0.45173146  0.84709165    -0.25600
C2248       C  0.55836548  0.47146416  0.84105000     0.36400
C2249       C  0.52851134  0.45434947  0.82864292    -0.19700
C2250       C  0.51487566  0.41699284  0.82374866    -0.24900
C2251       C  0.53253517  0.39753846  0.82949869     0.27800
H2252       H  0.59912244  0.46496329  0.85635609     0.13500
N2253       N  0.57213569  0.00925476  0.84672527    -0.82200
H2254       H  0.49166322  0.40371347  0.81438428     0.18400
N2255       N  0.51989067  0.36036990  0.82303187    -0.80800
H2256       H  0.59562402  0.01839559  0.85493523     0.34000
H2257       H  0.55217109  0.00973146  0.85513388     0.38500
H2258       H  0.49672798  0.35139543  0.81459088     0.34000
H2259       H  0.54064771  0.36103779  0.81478140     0.30700
H2260       H  0.66826671  0.44911978  0.83083534     0.34000
H2261       H  0.62913136  0.43673611  0.81925338     0.30700
H2262       H  0.57567281  0.29890071  0.87900282     0.38500
H2263       H  0.54997034  0.31717656  0.88628512     0.34000
C2264       C  0.54408688  0.07232664  0.82879083    -0.19700
C2265       C  0.58299862  0.09206275  0.82825898     0.36500
C2266       C  0.60230010  0.12803095  0.83581297    -0.25700
C2267       C  0.58351918  0.14416285  0.84423815     0.02900
C2268       C  0.54494568  0.12284688  0.84641158     0.27700
C2269       C  0.52556698  0.08707024  0.83862203    -0.24800
N2270       N  0.60279153  0.07514575  0.82061657    -0.82200
H2271       H  0.63203980  0.14391910  0.83473818     0.13500
C2272       C  0.60428173  0.18363308  0.85034553     0.02900
N2273       N  0.52565459  0.13792428  0.85629862    -0.80800
H2274       H  0.99578760  0.07130632  0.83949069     0.18400
C2275       C  0.59568557  0.20935782  0.84261250    -0.25600
C2276       C  0.61249872  0.24632171  0.84898842     0.36400
C2277       C  0.63879832  0.25788896  0.86331327    -0.19700
C2278       C  0.64980795  0.23290531  0.86973276    -0.24900
C2279       C  0.63213308  0.19570875  0.86382136     0.27800
H2280       H  0.57491405  0.20017376  0.83190081     0.13500
N2281       N  0.60203570  0.27155642  0.84132131    -0.82200
H2282       H  0.67101018  0.24197174  0.88020435     0.18400
N2283       N  0.64136738  0.16986290  0.87194931    -0.80800
H2284       H  0.58328235  0.25896174  0.83052704     0.34000
H2285       H  0.58809645  0.27728319  0.85153167     0.38500
H2286       H  0.66227779  0.18315527  0.88174592     0.34000
H2287       H  0.61817401  0.15007763  0.87905803     0.30700
H2288       H  0.99742968  0.11879505  0.85663970     0.34000
H2289       H  0.53492086  0.14203624  0.86993040     0.30700
H2290       H  0.59787921  0.07183055  0.80650880     0.38500
H2291       H  0.63118291  0.09266930  0.82218051     0.34000
C2292       C  0.73995716  0.37908527  0.86130540    -0.19700
C2293       C  0.76428668  0.41762848  0.86433863     0.36500
C2294       C  0.80004237  0.43470700  0.85716204    -0.25700
C2295       C  0.81212482  0.41512632  0.84617599     0.02900
C2296       C  0.78695980  0.37758859  0.84177252     0.27700
C2297       C  0.75128007  0.35989487  0.84950835    -0.24800
N2298       N  0.75369573  0.44053755  0.87444161    -0.82200
H2299       H  0.81876085  0.46363208  0.86042945     0.13500
C2300       C  0.85123399  0.43418630  0.83962982     0.02900
N2301       N  0.79791707  0.35747657  0.82964637    -0.80800
H2302       H  0.73280625  0.33059569  0.84697151     0.18400
C2303       C  0.87318586  0.41791984  0.84299942    -0.25600
C2304       C  0.90972804  0.43431932  0.83656508     0.36400
C2305       C  0.92486475  0.46795527  0.82676366    -0.19700
C2306       C  0.90356033  0.48502754  0.82400421    -0.24900
C2307       C  0.86691921  0.46849103  0.83022254     0.27800
H2308       H  0.86155133  0.39199935  0.85048805     0.13500
N2309       N  0.93070721  0.41583421  0.83897657    -0.82200
H2310       H  0.91517114  0.51065990  0.81625267     0.18400
N2311       N  0.84526641  0.48584467  0.82649664    -0.80800
H2312       H  0.91500983  0.39049291  0.84570236     0.34000
H2313       H  0.95282544  0.43229732  0.84768487     0.38500
H2314       H  0.86090104  0.51092169  0.81953624     0.34000
H2315       H  0.82390994  0.46836186  0.81761697     0.30700
H2316       H  0.77635243  0.33026730  0.82779824     0.34000
H2317       H  0.80317518  0.37024720  0.81676088     0.30700
H2318       H  0.72605493  0.42581305  0.87807505     0.38500
H2319       H  0.76928031  0.44916994  0.88654611     0.34000
C2320       C  0.92997746  0.46709161  0.78532294    -0.19700
C2321       C  0.92796304  0.48843572  0.77085510     0.36500
C2322       C  0.89935888  0.47196378  0.75803592    -0.25700
C2323       C  0.87243902  0.43448118  0.75950258     0.02900
C2324       C  0.87402785  0.41291851  0.77403148     0.27700
C2325       C  0.90309245  0.42944760  0.78678839    -0.24800
N2326       N  0.95483715  0.02717531  0.76930932    -0.82200
H2327       H  0.89795297  0.48859143  0.74692806     0.13500
C2328       C  0.84183050  0.41909289  0.74615870     0.02900
N2329       N  0.84614029  0.37455667  0.77576750    -0.80800
H2330       H  0.90519352  0.41283324  0.79767402     0.18400
C2331       C  0.83821654  0.39190750  0.73354785    -0.25600
C2332       C  0.81011167  0.37805963  0.72020751     0.36400
C2333       C  0.78517763  0.39171218  0.71968975    -0.19700
C2334       C  0.78934377  0.41924908  0.73227306    -0.24900
C2335       C  0.81715758  0.43276444  0.74561416     0.27800
H2336       H  0.85766361  0.38189927  0.73399843     0.13500
N2337       N  0.80707176  0.35058744  0.70716165    -0.82200
H2338       H  0.77008798  0.42949906  0.73210942     0.18400
N2339       N  0.82026636  0.46001957  0.75882151    -0.80800
H2340       H  0.82730982  0.34335746  0.70959826     0.34000
H2341       H  0.81231828  0.36268898  0.69411177     0.38500
H2342       H  0.80002189  0.46729425  0.75652732     0.34000
H2343       H  0.81513439  0.44773047  0.77182586     0.30700
H2344       H  0.85144848  0.36267943  0.78719424     0.34000
H2345       H  0.82114885  0.37365525  0.77834265     0.30700
H2346       H  0.94106685  0.04234952  0.76970869     0.38500
H2347       H  0.96757110  0.03145193  0.75648056     0.34000
C2348       C  0.61703877  0.22011804  0.72210892    -0.19700
C2349       C  0.64059293  0.21513023  0.73434166     0.36500
C2350       C  0.62543761  0.18541122  0.74686381    -0.25700
C2351       C  0.58738591  0.16062909  0.74747221     0.02900
C2352       C  0.56397290  0.16517305  0.73509400     0.27700
C2353       C  0.57896614  0.19507204  0.72272862    -0.24800
N2354       N  0.67961942  0.24064822  0.73436789    -0.82200
H2355       H  0.64329649  0.18191777  0.75646377     0.13500
C2356       C  0.57225083  0.13023284  0.76125701     0.02900
N2357       N  0.52507323  0.13913592  0.73501954    -0.80800
H2358       H  0.56080412  0.19854574  0.71333562     0.18400
C2359       C  0.54569396  0.12778065  0.77380816    -0.25600
C2360       C  0.52904231  0.09842251  0.78633727     0.36400
C2361       C  0.54036647  0.07147363  0.78686658    -0.19700
C2362       C  0.56694668  0.07397946  0.77430991    -0.24900
C2363       C  0.58306130  0.10307199  0.76153096     0.27800
H2364       H  0.53693915  0.14831915  0.77346311     0.13500
N2365       N  0.49905782  0.09562658  0.79715675    -0.82200
H2366       H  0.57476138  0.05271508  0.77432819     0.18400
N2367       N  0.60969884  0.10467447  0.74856142    -0.80800
H2368       H  0.50987136  0.11764605  0.80655744     0.34000
H2369       H  0.98578308  0.07094121  0.80456949     0.38500
H2370       H  0.61471659  0.08268702  0.75065357     0.34000
H2371       H  0.59821243  0.10103578  0.73541424     0.30700
H2372       H  0.51167242  0.14642554  0.72512452     0.34000
H2373       H  0.52147101  0.11331122  0.73106807     0.30700
H2374       H  0.68376039  0.26643480  0.73877127     0.38500
H2375       H  0.69292547  0.23257488  0.74394332     0.34000
C2376       C  0.61224541  0.38843292  0.72514553    -0.19700
C2377       C  0.62471728  0.42686697  0.72651739     0.36500
C2378       C  0.60964076  0.43956722  0.73997628    -0.25700
C2379       C  0.58239815  0.41477139  0.75199245     0.02900
C2380       C  0.57016711  0.37652388  0.75081894     0.27700
C2381       C  0.58506417  0.36368335  0.73731119    -0.24800
N2382       N  0.65197384  0.45276612  0.71402478    -0.82200
H2383       H  0.61851208  0.46889477  0.74084319     0.13500
C2384       C  0.56559049  0.42926552  0.76502856     0.02900
N2385       N  0.54280507  0.35102059  0.76339067    -0.80800
H2386       H  0.57581607  0.33427696  0.73646544     0.18400
C2387       C  0.52793971  0.41728098  0.76336484    -0.25600
C2388       C  0.51153400  0.43242821  0.77450561     0.36400
C2389       C  0.53301384  0.45980042  0.78753284    -0.19700
C2390       C  0.57052846  0.47147824  0.78944273    -0.24900
C2391       C  0.58710176  0.45634223  0.77829959     0.27800
H2392       H  0.51140161  0.39662491  0.75311272     0.13500
N2393       N  0.97301858  0.41981400  0.77268466    -0.82200
H2394       H  0.58686334  0.99274621  0.79946595     0.18400
N2395       N  0.62562647  0.46846843  0.78025049    -0.80800
H2396       H  0.96794699  0.42449298  0.75914400     0.34000
H2397       H  0.95848700  0.39119544  0.77502786     0.38500
H2398       H  0.63738448  0.98850981  0.79062207     0.34000
H2399       H  0.62782646  0.44563790  0.78452326     0.30700
H2400       H  0.53680553  0.32383633  0.76068340     0.34000
H2401       H  0.55412571  0.35760256  0.77662588     0.30700
H2402       H  0.64036537  0.44683632  0.70084405     0.38500
H2403       H  0.65832250  0.47993227  0.71708436     0.34000
C2404       C  0.69673749  0.29663733  0.44969413    -0.19700
C2405       C  0.71492729  0.31403448  0.43318570     0.36500
C2406       C  0.72671274  0.29584701  0.42109971    -0.25700
C2407       C  0.72112678  0.26059890  0.42509484     0.02900
C2408       C  0.70245324  0.24245319  0.44126688     0.27700
C2409       C  0.68980321  0.26036804  0.45324524    -0.24800
N2410       N  0.72271897  0.35066219  0.42870473    -0.82200
H2411       H  0.74125432  0.30982759  0.40866919     0.13500
C2412       C  0.73716087  0.24445509  0.41257334     0.02900
N2413       N  0.69735481  0.20648600  0.44568163    -0.80800
H2414       H  0.67481280  0.24609765  0.46550512     0.18400
C2415       C  0.77387420  0.25367768  0.41522685    -0.25600
C2416       C  0.79133949  0.24136889  0.40289953     0.36400
C2417       C  0.77169134  0.21988401  0.38743214    -0.19700
C2418       C  0.73472463  0.21038432  0.38493299    -0.24900
C2419       C  0.71730301  0.22269859  0.39732136     0.27800
H2420       H  0.78892193  0.27063797  0.42696649     0.13500
N2421       N  0.82861605  0.24992518  0.40625723    -0.82200
H2422       H  0.71956017  0.19369516  0.37315273     0.18400
N2423       N  0.67993923  0.21407911  0.39424516    -0.80800
H2424       H  0.83910234  0.26614869  0.41813100     0.34000
H2425       H  0.82807250  0.22491365  0.40887315     0.38500
H2426       H  0.66945667  0.19838662  0.38221778     0.34000
H2427       H  0.66395424  0.19729986  0.40506639     0.30700
H2428       H  0.68384707  0.19733222  0.45829074     0.34000
H2429       H  0.67998041  0.18773986  0.43572119     0.30700
H2430       H  0.70989570  0.34949155  0.41617264     0.38500
H2431       H  0.75115730  0.36706171  0.42678680     0.34000
C2432       C  0.59237942  0.29855437  0.45484707    -0.19700
C2433       C  0.56261558  0.30538153  0.45739485     0.36500
C2434       C  0.53227689  0.28878064  0.44539302    -0.25700
C2435       C  0.53166536  0.26711092  0.43045560     0.02900
C2436       C  0.56156631  0.26125128  0.42752976     0.27700
C2437       C  0.59129822  0.27657659  0.43987447    -0.24800
N2438       N  0.56303232  0.33074546  0.47098089    -0.82200
H2439       H  0.50959834  0.29401897  0.44731116     0.13500
C2440       C  0.50057349  0.25223218  0.41727937     0.02900
N2441       N  0.56207874  0.24068578  0.41170194    -0.80800
H2442       H  0.61408484  0.27161533  0.43768281     0.18400
C2443       C  0.50217791  0.27402169  0.40222499    -0.25600
C2444       C  0.97435648  0.26002140  0.38871458     0.36400
C2445       C  0.94462156  0.22337675  0.39028840    -0.19700
C2446       C  0.94303162  0.20171474  0.40545900    -0.24900
C2447       C  0.97052379  0.21597984  0.41911773     0.27800
H2448       H  0.52547882  0.30185932  0.40092859     0.13500
N2449       N  0.97649692  0.28258065  0.37327629    -0.82200
H2450       H  0.91982761  0.17383622  0.40684534     0.18400
N2451       N  0.96770288  0.19418629  0.43502038    -0.80800
H2452       H  0.99996427  0.30886886  0.37425068     0.34000
H2453       H  0.97961592  0.27009533  0.36143133     0.38500
H2454       H  0.94351303  0.16840642  0.43446397     0.34000
H2455       H  0.98954934  0.18880462  0.43469277     0.30700
H2456       H  0.58665486  0.23993888  0.41121882     0.34000
H2457       H  0.54089118  0.21324083  0.41318269     0.30700
H2458       H  0.58808198  0.34457590  0.47796215     0.38500
H2459       H  0.54246063  0.31536173  0.48056673     0.34000
C2460       C  0.70039728  0.40845629  0.45575437    -0.19700
C2461       C  0.68108765  0.42757103  0.45258736     0.36500
C2462       C  0.69617401  0.45832380  0.44068957    -0.25700
C2463       C  0.72955652  0.46929264  0.43149902     0.02900
C2464       C  0.74879978  0.45003744  0.43480619     0.27700
C2465       C  0.73423688  0.42030905  0.44712830    -0.24800
N2466       N  0.64601797  0.41521049  0.46115502    -0.82200
H2467       H  0.68153705  0.47329076  0.43825777     0.13500
C2468       C  0.74392732  0.50024005  0.41808056     0.02900
N2469       N  0.78253559  0.46007668  0.42524694    -0.80800
H2470       H  0.74912076  0.40577563  0.44976899     0.18400
C2471       C  0.78010285  0.02969266  0.42008201    -0.25600
C2472       C  0.79621709  0.05759692  0.40674008     0.36400
C2473       C  0.77528271  0.05641829  0.39125175    -0.19700
C2474       C  0.73842134  0.02810427  0.38972815    -0.24900
C2475       C  0.72268236  0.49956363  0.40282915     0.27800
H2476       H  0.79607349  0.03053400  0.43200463     0.13500
N2477       N  0.83354142  0.08732145  0.40898789    -0.82200
H2478       H  0.72228296  0.02757865  0.37794436     0.18400
N2479       N  0.68555097  0.46956217  0.40048345    -0.80800
H2480       H  0.84514288  0.08377734  0.42102170     0.34000
H2481       H  0.83280561  0.11194946  0.41065884     0.38500
H2482       H  0.67371684  0.47340708  0.38861758     0.34000
H2483       H  0.68670720  0.44524296  0.39844299     0.30700
H2484       H  0.79329064  0.44327360  0.42935930     0.34000
H2485       H  0.77623838  0.45477273  0.41125291     0.30700
H2486       H  0.62773798  0.38925003  0.45552027     0.38500
H2487       H  0.63572253  0.43274214  0.45769968     0.34000
C2488       C  0.80387895  0.21154541  0.57044684    -0.19700
C2489       C  0.82531505  0.23705540  0.58430114     0.36500
C2490       C  0.80887561  0.25080521  0.59631007    -0.25700
C2491       C  0.77142973  0.23942943  0.59481984     0.02900
C2492       C  0.74996393  0.21443169  0.58076885     0.27700
C2493       C  0.76650637  0.20071495  0.56863935    -0.24800
N2494       N  0.86383412  0.24919151  0.58598396    -0.82200
H2495       H  0.82532503  0.27056203  0.60691713     0.13500
C2496       C  0.75531882  0.25401242  0.60822884     0.02900
N2497       N  0.71142053  0.20250953  0.57918343    -0.80800
H2498       H  0.75009120  0.18076323  0.55809870     0.18400
C2499       C  0.73964523  0.27476876  0.60188568    -0.25600
C2500       C  0.72438916  0.28948757  0.61414563     0.36400
C2501       C  0.72542519  0.28368438  0.63336066    -0.19700
C2502       C  0.74185630  0.26332274  0.63960937    -0.24900
C2503       C  0.75659223  0.24825338  0.62724367     0.27800
H2504       H  0.73929947  0.27944164  0.58723883     0.13500
N2505       N  0.70807706  0.31028007  0.60701697    -0.82200
H2506       H  0.74299072  0.25879241  0.65420672     0.18400
N2507       N  0.77269850  0.22693746  0.63388241    -0.80800
H2508       H  0.71222518  0.31416631  0.59282660     0.34000
H2509       H  0.67960007  0.29412309  0.60883984     0.38500
H2510       H  0.77174401  0.22552537  0.64824521     0.34000
H2511       H  0.75653224  0.19976133  0.62903049     0.30700
H2512       H  0.69967073  0.18417199  0.56810760     0.34000
H2513       H  0.69844091  0.18760003  0.59106610     0.30700
H2514       H  0.87665759  0.26519027  0.57438265     0.38500
H2515       H  0.87530700  0.26678136  0.59734458     0.34000
C2516       C  0.55350443  0.27722141  0.63706619    -0.19700
C2517       C  0.51679056  0.26437020  0.64267959     0.36500
C2518       C  0.98833454  0.24864847  0.62955055    -0.25700
C2519       C  0.99590997  0.24651292  0.61094583     0.02900
C2520       C  0.53239138  0.25991950  0.60521052     0.27700
C2521       C  0.56074185  0.27490191  0.61831023    -0.24800
N2522       N  0.50851120  0.26803411  0.66148879    -0.82200
H2523       H  0.96012788  0.23877795  0.63373318     0.13500
C2524       C  0.96535088  0.23095152  0.59753091     0.02900
N2525       N  0.54042533  0.25821991  0.58611022    -0.80800
H2526       H  0.58871394  0.28470089  0.61376655     0.18400
C2527       C  0.96448959  0.25387317  0.58365856    -0.25600
C2528       C  0.93520684  0.24075511  0.57117036     0.36400
C2529       C  0.90624715  0.20341412  0.57251829    -0.19700
C2530       C  0.90707325  0.18077472  0.58656728    -0.24900
C2531       C  0.93669953  0.19391522  0.59887146     0.27800
H2532       H  0.98632875  0.28257533  0.58285716     0.13500
N2533       N  0.93502571  0.26678638  0.55822636    -0.82200
H2534       H  0.88459773  0.15255508  0.58785812     0.18400
N2535       N  0.93799323  0.16982794  0.61265652    -0.80800
H2536       H  0.95680096  0.27411579  0.54907743     0.34000
H2537       H  0.91074240  0.25554859  0.55057559     0.38500
H2538       H  0.91467794  0.14340514  0.61178870     0.34000
H2539       H  0.96065002  0.16653418  0.60974874     0.30700
H2540       H  0.56874959  0.26960517  0.58412415     0.34000
H2541       H  0.52807983  0.23022072  0.58236696     0.30700
H2542       H  0.52042842  0.29640932  0.66432973     0.38500
H2543       H  0.48013368  0.25665188  0.66328015     0.34000
C2544       C  0.72040348  0.45572271  0.63938556    -0.19700
C2545       C  0.74470960  0.49238966  0.64558575     0.36500
C2546       C  0.75784855  0.52197215  0.63295491    -0.25700
C2547       C  0.74726269  0.01538723  0.61428402     0.02900
C2548       C  0.72289568  0.47937094  0.60824497     0.27700
C2549       C  0.70959691  0.44993312  0.62075061    -0.24800
N2550       N  0.75662953  0.49950349  0.66445282    -0.82200
H2551       H  0.77715649  0.04988263  0.63730764     0.13500
C2552       C  0.76413873  0.04595755  0.60084772     0.02900
N2553       N  0.71192094  0.47274584  0.58922298    -0.80800
H2554       H  0.69075158  0.42218097  0.61578132     0.18400
C2555       C  0.79161559  0.04778398  0.58922220    -0.25600
C2556       C  0.80749976  0.07526309  0.57566202     0.36400
C2557       C  0.79473487  0.10066605  0.57335908    -0.19700
C2558       C  0.76744084  0.09902283  0.58515259    -0.24900
C2559       C  0.75184188  0.07171110  0.59887625     0.27800
H2560       H  0.80093179  0.02785613  0.59091348     0.13500
N2561       N  0.83712334  0.07798595  0.56461672    -0.82200
H2562       H  0.75848489  0.11928020  0.58367505     0.18400
N2563       N  0.72369394  0.06997813  0.61080669    -0.80800
H2564       H  0.84295083  0.05698096  0.56795684     0.34000
H2565       H  0.86064506  0.10305438  0.56786339     0.38500
H2566       H  0.71799519  0.09114949  0.60764127     0.34000
H2567       H  0.69955255  0.04489888  0.60816972     0.30700
H2568       H  0.69390186  0.44449536  0.58683717     0.34000
H2569       H  0.69642711  0.98640352  0.58651844     0.30700
H2570       H  0.77305035  0.48748564  0.66679463     0.38500
H2571       H  0.77348279  0.52799037  0.66676897     0.34000
C2572       C  0.71051656  0.30063903  0.49133307    -0.19700
C2573       C  0.69707286  0.27503072  0.50593563     0.36500
C2574       C  0.71873255  0.26069216  0.51303546    -0.25700
C2575       C  0.75352723  0.27117377  0.50564542     0.02900
C2576       C  0.76744458  0.29736162  0.49131320     0.27700
C2577       C  0.74611360  0.31232723  0.48455711    -0.24800
N2578       N  0.66096087  0.26242851  0.51313079    -0.82200
H2579       H  0.70798470  0.24059331  0.52408915     0.13500
C2580       C  0.77458889  0.25374593  0.51277878     0.02900
N2581       N  0.80255102  0.30762216  0.48323554    -0.80800
H2582       H  0.75692029  0.33254132  0.47356218     0.18400
C2583       C  0.76825448  0.21986515  0.50533199    -0.25600
C2584       C  0.78464395  0.20040947  0.51307878     0.36400
C2585       C  0.80827140  0.21549328  0.52847837    -0.19700
C2586       C  0.81741145  0.25139235  0.53451849    -0.24900
C2587       C  0.79981821  0.26996165  0.52735187     0.27800
H2588       H  0.74928419  0.20788390  0.49387722     0.13500
N2589       N  0.77641194  0.16506731  0.50564867    -0.82200
H2590       H  0.83710761  0.26431958  0.54559109     0.18400
N2591       N  0.80603972  0.30424519  0.53544362    -0.80800
H2592       H  0.75921795  0.15838225  0.49414339     0.34000
H2593       H  0.76144017  0.14516470  0.51556479     0.38500
H2594       H  0.82426696  0.31168578  0.54656236     0.34000
H2595       H  0.81887804  0.32515527  0.52563267     0.30700
H2596       H  0.80826854  0.32632684  0.47245112     0.34000
H2597       H  0.82283932  0.32165927  0.49321427     0.30700
H2598       H  0.66349313  0.26863347  0.52718666     0.38500
H2599       H  0.64577678  0.23356244  0.51166737     0.34000
C2600       C  0.79406269  0.09407750  0.53163197    -0.19700
C2601       C  0.75526268  0.07173107  0.53025080     0.36500
C2602       C  0.73981986  0.03575223  0.52276764    -0.25700
C2603       C  0.76144611  0.01925771  0.51871922     0.02900
C2604       C  0.80024283  0.04179318  0.52068962     0.27700
C2605       C  0.81589061  0.07924621  0.52587717    -0.24800
N2606       N  0.73056196  0.08381535  0.53683351    -0.82200
H2607       H  0.71033663  0.02035975  0.52063649     0.13500
C2608       C  0.74325435  0.47916467  0.51233773     0.02900
N2609       N  0.82409924  0.02656212  0.51865065    -0.80800
H2610       H  0.84551684  0.09588832  0.52711371     0.18400
C2611       C  0.76106236  0.46813344  0.49942868    -0.25600
C2612       C  0.74507365  0.43129651  0.49323187     0.36400
C2613       C  0.70781741  0.40627967  0.49701835    -0.19700
C2614       C  0.69002146  0.41596493  0.51036831    -0.24900
C2615       C  0.70805118  0.45141702  0.51881707     0.27800
H2616       H  0.78739453  0.48806440  0.49376173     0.13500
N2617       N  0.76652283  0.41908734  0.48308411    -0.82200
H2618       H  0.66191536  0.39605705  0.51404505     0.18400
N2619       N  0.69068168  0.45906387  0.53391510    -0.80800
H2620       H  0.79366133  0.44071261  0.48162371     0.34000
H2621       H  0.76763706  0.39849690  0.49083791     0.38500
H2622       H  0.66525812  0.43578575  0.53696558     0.34000
H2623       H  0.70739130  0.46430357  0.54551009     0.30700
H2624       H  0.83812654  0.03015799  0.53107297     0.34000
H2625       H  0.84364461  0.54182452  0.50856822     0.30700
H2626       H  0.74468505  0.11044898  0.54249255     0.38500
H2627       H  0.71551156  0.08484453  0.52558723     0.34000
C2628       C  0.59444954  0.28934396  0.49656407    -0.19700
C2629       C  0.57057698  0.25147972  0.49234439     0.36500
C2630       C  0.53513668  0.23268153  0.50015961    -0.25700
C2631       C  0.52313337  0.25092016  0.51216473     0.02900
C2632       C  0.54832333  0.28756836  0.51786055     0.27700
C2633       C  0.58387029  0.30643037  0.51003143    -0.24800
N2634       N  0.58199579  0.23273597  0.47956724    -0.82200
H2635       H  0.51622522  0.20414609  0.49628764     0.13500
C2636       C  0.98382586  0.23167392  0.51815312     0.02900
N2637       N  0.53719811  0.30583806  0.53106994    -0.80800
H2638       H  0.60240813  0.33525345  0.51352058     0.18400
C2639       C  0.97110131  0.20170263  0.53031723    -0.25600
C2640       C  0.93446924  0.18349978  0.53663658     0.36400
C2641       C  0.91020115  0.19625744  0.53117133    -0.19700
C2642       C  0.92207784  0.22423439  0.51783619    -0.24900
C2643       C  0.95866733  0.24206533  0.51125376     0.27800
H2644       H  0.98996894  0.19272562  0.53503232     0.13500
N2645       N  0.92189654  0.15232539  0.54879108    -0.82200
H2646       H  0.90343782  0.23366725  0.51335149     0.18400
N2647       N  0.97028107  0.27045847  0.49748104    -0.80800
H2648       H  0.94332748  0.14727280  0.55204277     0.34000
H2649       H  0.90228408  0.12900680  0.54161135     0.38500
H2650       H  0.94809997  0.27351517  0.49319905     0.34000
H2651       H  0.98924311  0.29565819  0.50356343     0.30700
H2652       H  0.55865354  0.33283226  0.53359909     0.34000
H2653       H  0.53205010  0.29140825  0.54347792     0.30700
H2654       H  0.60473183  0.23235476  0.48525631     0.38500
H2655       H  0.56134162  0.20505882  0.47789726     0.34000
C2656       C  0.83537956  0.67166996  0.56807271     0.45600
H2657       H  0.83501499  0.67281275  0.58335621    -0.03400
C2658       C  0.83626571  0.66873758  0.53228777     0.45600
H2659       H  0.83700922  0.66733524  0.51706254    -0.03400
C2660       C  0.87388671  0.68707857  0.56011524    -0.17100
C2661       C  0.81295030  0.63242236  0.56050445    -0.16900
C2662       C  0.81984806  0.69370223  0.55885206    -0.17300
C2663       C  0.87492669  0.68460251  0.54129896    -0.17200
C2664       C  0.81265923  0.63028392  0.54164178    -0.16800
C2665       C  0.82056749  0.69333038  0.53988016    -0.17100
C2666       C  0.66800535  0.83204742  0.49284167     0.45600
H2667       H  0.66984997  0.83064403  0.50802738    -0.03400
C2668       C  0.66412571  0.83599395  0.45721175     0.45600
H2669       H  0.66205537  0.83796962  0.44208303    -0.03400
C2670       C  0.68739819  0.81421746  0.48217088    -0.17100
C2671       C  0.62798713  0.81223239  0.48519409    -0.16900
C2672       C  0.68656503  0.87225818  0.48547270    -0.17300
C2673       C  0.68440099  0.81552396  0.46327048    -0.17200
C2674       C  0.62639246  0.81536626  0.46640025    -0.16800
C2675       C  0.68412517  0.87386239  0.46669826    -0.17100
Zn2676     Zn  0.61761465  0.80792666  0.68856323     1.49700
Zn2677     Zn  0.69376075  0.88670082  0.68891883     1.49400
Zn2678     Zn  0.69482435  0.80971426  0.68649719     1.49100
Zn2679     Zn  0.66791285  0.83903698  0.65312993     1.49500
O2680       O  0.66838065  0.83574271  0.67954233    -1.84000
O2681       O  0.60780453  0.84057709  0.70546297    -0.74600
O2682       O  0.73839839  0.89591382  0.70322706    -0.74400
O2683       O  0.66401866  0.76604212  0.70298816    -0.74000
O2684       O  0.66091364  0.89388583  0.70632760    -0.74600
O2685       O  0.61023474  0.76432198  0.70412094    -0.74200
O2686       O  0.73968774  0.84321867  0.70125043    -0.74800
O2687       O  0.69462558  0.81654494  0.64148859    -0.74200
O2688       O  0.70955461  0.92592660  0.66892449    -0.75000
O2689       O  0.71114940  0.79256602  0.66418277    -0.74400
O2690       O  0.69076565  0.89073009  0.64401795    -0.74800
O2691       O  0.61725456  0.81241472  0.64327312    -0.74700
O2692       O  0.58044730  0.78941420  0.66737869    -0.74500
C2693       C  0.62771934  0.87359646  0.71148992     0.77300
C2694       C  0.75312105  0.87633746  0.70711465     0.77800
C2695       C  0.63119039  0.75172137  0.70897591     0.76700
C2696       C  0.70966774  0.79839373  0.64707400     0.77100
C2697       C  0.70622815  0.92260248  0.65150728     0.78200
C2698       C  0.58518608  0.79393002  0.65003010     0.77300
C2699       C  0.50094451  0.49959379  0.79021580     0.45600
H2700       H  0.50203137  0.49972738  0.77493154    -0.03400
C2701       C  0.49876348  0.49884785  0.82607842     0.45600
H2702       H  0.49753699  0.49862381  0.84131948    -0.03400
C2703       C  0.96211876  0.98309130  0.79789362    -0.17100
C2704       C  0.51664191  0.97713947  0.79898809    -0.16900
C2705       C  0.52235528  0.53812883  0.79878753    -0.17300
C2706       C  0.96046671  0.98262597  0.81676038    -0.17200
C2707       C  0.51554349  0.97619382  0.81787016    -0.16800
C2708       C  0.52229274  0.53805775  0.81770653    -0.17100
C2709       C  0.66657907  0.83248884  0.86416853     0.45600
H2710       H  0.66629082  0.83173908  0.84890197    -0.03400
C2711       C  0.66774943  0.83489977  0.89999237     0.45600
H2712       H  0.66801848  0.83564067  0.91527414    -0.03400
C2713       C  0.64265996  0.84773807  0.87259028    -0.17100
C2714       C  0.65200537  0.79388326  0.87338084    -0.16900
C2715       C  0.70560979  0.85735697  0.87241900    -0.17300
C2716       C  0.64421695  0.84957580  0.89148496    -0.17200
C2717       C  0.65229903  0.79576695  0.89231676    -0.16800
C2718       C  0.70579817  0.85766637  0.89134714    -0.17100
C2719       C  0.83362460  0.66566855  0.12280905     0.45600
H2720       H  0.83549310  0.66688712  0.10753952    -0.03400
C2721       C  0.82945348  0.66362586  0.15857223     0.45600
H2722       H  0.82767758  0.66298007  0.17382125    -0.03400
C2723       C  0.79421261  0.64816663  0.12990588    -0.17100
C2724       C  0.84933637  0.64317816  0.13148551    -0.16900
C2725       C  0.85419914  0.70375952  0.13184237    -0.17300
C2726       C  0.79167222  0.64804429  0.14880997    -0.17200
C2727       C  0.84644401  0.64083742  0.15039790    -0.16800
C2728       C  0.85250204  0.70327079  0.15064436    -0.17100
C2729       C  0.99826685  0.99919857  0.19789377     0.45600
H2730       H  0.99640489  0.99860504  0.18265645    -0.03400
C2731       C  0.00257711  0.00166725  0.23371190     0.45600
H2732       H  0.50469053  0.00319048  0.24897339    -0.03400
C2733       C  0.97834712  0.51800945  0.20698948    -0.17100
C2734       C  0.98049163  0.96019387  0.20707116    -0.16900
C2735       C  0.53826354  0.52063664  0.20553024    -0.17300
C2736       C  0.98048567  0.51866751  0.22578994    -0.17200
C2737       C  0.98421905  0.96214360  0.22603932    -0.22500
C2738       C  0.53981406  0.52175552  0.22434713    -0.17100
Zn2739     Zn  0.85759609  0.71683224  0.35463747     1.49700
Zn2740     Zn  0.83362868  0.66505040  0.31923886     1.49400
Zn2741     Zn  0.85819761  0.63985789  0.35529681     1.49100
Zn2742     Zn  0.78065019  0.63907642  0.35316203     1.49500
O2743       O  0.83264762  0.66526129  0.34579831    -1.84000
O2744       O  0.87655587  0.75367098  0.33344376    -0.74600
O2745       O  0.85901356  0.63890396  0.30994185    -0.74400
O2746       O  0.90076461  0.67386347  0.37168277    -0.74000
O2747       O  0.86041578  0.71624297  0.30925454    -0.74600
O2748       O  0.90092161  0.72742030  0.37093651    -0.74200
O2749       O  0.87704207  0.62050132  0.33449354    -0.74800
O2750       O  0.77099865  0.59764306  0.37037631    -0.74200
O2751       O  0.78336221  0.63927532  0.30808473    -0.75000
O2752       O  0.82431602  0.59816586  0.37200678    -0.74400
O2753       O  0.74503753  0.61801402  0.33158488    -0.74800
O2754       O  0.76896979  0.67289522  0.36787123    -0.74700
O2755       O  0.82272464  0.72525603  0.37044584    -0.74500
C2756       C  0.87596218  0.74875092  0.31609484     0.77300
C2757       C  0.87488149  0.62266628  0.31706995     0.77800
C2758       C  0.91411009  0.70752595  0.37673739     0.76700
C2759       C  0.79100106  0.58536569  0.37698204     0.77100
C2760       C  0.75074225  0.62128113  0.31430856     0.78200
C2761       C  0.78867445  0.70546233  0.37440997     0.77300
Zn2762     Zn  0.54941395  0.52148946  0.00199234     1.49700
Zn2763     Zn  0.97452862  0.52520380  0.00290704     1.49400
Zn2764     Zn  0.97128398  0.94640805  0.00422722     1.49100
Zn2765     Zn  0.00093080  0.50032032  0.03839473     1.49500
O2766       O  0.99921756  0.99848265  0.01172099    -1.84000
O2767       O  0.55924934  0.56474916  0.98553265    -0.74600
O2768       O  0.93346013  0.99262500  0.98545700    -0.74400
O2769       O  0.50290031  0.93272736  0.98919553    -0.74000
O2770       O  0.50938064  0.57022968  0.98817452    -0.74600
O2771       O  0.55680190  0.98454261  0.98695153    -0.74200
O2772       O  0.92934530  0.93750839  0.98754774    -0.74800
O2773       O  0.97859106  0.94978768  0.04957407    -0.74200
O2774       O  0.95341667  0.54107180  0.02397294    -0.75000
O2775       O  0.95219917  0.91163980  0.02603938    -0.74400
O2776       O  0.97217882  0.52280305  0.04836962    -0.74800
O2777       O  0.55265443  0.53018905  0.04742669    -0.74700
O2778       O  0.58743342  0.54186303  0.02252809    -0.74500
C2779       C  0.54149859  0.58148948  0.98173731     0.77300
C2780       C  0.91847805  0.95858547  0.98072448     0.77800
C2781       C  0.53562990  0.95033636  0.98306069     0.76700
C2782       C  0.95869264  0.91714154  0.04322144     0.77100
C2783       C  0.95470394  0.53747570  0.04133002     0.78200
C2784       C  0.58409993  0.54432827  0.03982439     0.77300
C2785       C  0.57391608  0.53684865  0.23542250    -0.19700
C2786       C  0.59453107  0.57476826  0.23999069     0.36500
C2787       C  0.62428028  0.58705368  0.25223361    -0.25700
C2788       C  0.63320869  0.56184872  0.26021791     0.02900
C2789       C  0.61297152  0.52397508  0.25546739     0.27700
C2790       C  0.58317589  0.51175302  0.24322500    -0.24800
N2791       N  0.58451211  0.60060113  0.23284901    -0.82200
H2792       H  0.63983102  0.61619895  0.25593859     0.13500
C2793       C  0.66318182  0.57543553  0.27395879     0.02900
N2794       N  0.62254779  0.49815568  0.26328268    -0.80800
H2795       H  0.56663202  0.48244838  0.24001736     0.18400
C2796       C  0.65446476  0.56834540  0.29265255    -0.25600
C2797       C  0.68217977  0.58272365  0.30624197     0.36400
C2798       C  0.71957781  0.60441696  0.30087508    -0.19700
C2799       C  0.72788466  0.61036491  0.28195039    -0.24900
C2800       C  0.70012723  0.59610149  0.26850095     0.27800
H2801       H  0.62579898  0.55215836  0.29664468     0.13500
N2802       N  0.67224863  0.57529128  0.32531931    -0.82200
H2803       H  0.75624707  0.62645895  0.27751009     0.18400
N2804       N  0.70922140  0.60258992  0.24929231    -0.80800
H2805       H  0.64394953  0.55709998  0.32669350     0.34000
H2806       H  0.67748796  0.60027011  0.33142735     0.38500
H2807       H  0.73773139  0.61848901  0.24753122     0.34000
H2808       H  0.70095790  0.57685869  0.24310635     0.30700
H2809       H  0.60477753  0.47128854  0.25843728     0.34000
H2810       H  0.64886595  0.50539767  0.25857450     0.30700
H2811       H  0.60738783  0.62151525  0.22601096     0.38500
H2812       H  0.57884934  0.61292202  0.24398125     0.34000
C2813       C  0.97042886  0.93011459  0.23898005    -0.19700
C2814       C  0.97856652  0.90088741  0.23731653     0.36500
C2815       C  0.96279688  0.87119822  0.24976630    -0.25700
C2816       C  0.94008384  0.87046261  0.26413951     0.02900
C2817       C  0.93286328  0.89991148  0.26611033     0.27700
C2818       C  0.94856516  0.92955344  0.25373300    -0.24800
N2819       N  0.00397468  0.90113849  0.22397950    -0.82200
H2820       H  0.96907571  0.84893821  0.24850408     0.13500
C2821       C  0.92449505  0.83916749  0.27733853     0.02900
N2822       N  0.90928495  0.89940030  0.28060918    -0.80800
H2823       H  0.94339051  0.95231482  0.25561399     0.18400
C2824       C  0.93301506  0.84629556  0.29611504    -0.25600
C2825       C  0.91766116  0.81759012  0.30917907     0.36400
C2826       C  0.89335387  0.78078746  0.30324374    -0.19700
C2827       C  0.88534365  0.77391164  0.28433539    -0.24900
C2828       C  0.90026150  0.80267483  0.27141360     0.27800
H2829       H  0.95177127  0.87448903  0.30057127     0.13500
N2830       N  0.92684374  0.82584742  0.32832028    -0.82200
H2831       H  0.86653562  0.74599237  0.27955784     0.18400
N2832       N  0.88978462  0.79519542  0.25238517    -0.80800
H2833       H  0.94396099  0.85439441  0.33033604     0.34000
H2834       H  0.94217451  0.81336342  0.33221192     0.38500
H2835       H  0.87253243  0.76673789  0.25016649     0.34000
H2836       H  0.87401752  0.80769200  0.24950438     0.30700
H2837       H  0.90688936  0.92326914  0.28021042     0.34000
H2838       H  0.88293854  0.87690920  0.27816185     0.30700
H2839       H  0.01672574  0.92582303  0.21658738     0.38500
H2840       H  0.98904061  0.87954633  0.21464812     0.34000
C2841       C  0.89046694  0.60609996  0.30435284    -0.19700
C2842       C  0.92215232  0.60366548  0.30861154     0.36500
C2843       C  0.93711537  0.59064364  0.29511950    -0.25700
C2844       C  0.92072143  0.57955898  0.27768400     0.02900
C2845       C  0.88897991  0.58158933  0.27349822     0.27700
C2846       C  0.87420570  0.59477053  0.28684278    -0.24800
N2847       N  0.93969255  0.61542122  0.32628518    -0.82200
H2848       H  0.96142258  0.58872320  0.29824001     0.13500
C2849       C  0.93614244  0.56463489  0.26401568     0.02900
N2850       N  0.87208565  0.57050507  0.25562767    -0.80800
H2851       H  0.84985008  0.59642410  0.28347122     0.18400
C2852       C  0.91431755  0.52788850  0.25799546    -0.25600
C2853       C  0.92728104  0.51244384  0.24494889     0.36400
C2854       C  0.96341233  0.53426917  0.23798300    -0.19700
C2855       C  0.98502877  0.57120883  0.24374782    -0.24900
C2856       C  0.97165663  0.58677653  0.25665557     0.27800
H2857       H  0.88689542  0.51095910  0.26357202     0.13500
N2858       N  0.90338373  0.97446783  0.23964184    -0.82200
H2859       H  0.51245264  0.58783839  0.23818555     0.18400
N2860       N  0.99382257  0.62487521  0.26227714    -0.80800
H2861       H  0.88025077  0.97302314  0.23333266     0.34000
H2862       H  0.91563763  0.96553871  0.22995432     0.38500
H2863       H  0.51929467  0.63721741  0.25560345     0.34000
H2864       H  0.98040434  0.63905418  0.25791828     0.30700
H2865       H  0.84877110  0.57348928  0.25477533     0.34000
H2866       H  0.89086956  0.58865972  0.24596502     0.30700
H2867       H  0.92210028  0.59631223  0.33599837     0.38500
H2868       H  0.96394051  0.61403753  0.32667664     0.34000
C2869       C  0.87149205  0.73756175  0.12048456    -0.19700
C2870       C  0.90292930  0.74628882  0.10995523     0.36500
C2871       C  0.91663444  0.77643131  0.09782334    -0.25700
C2872       C  0.89914058  0.79750701  0.09600389     0.02900
C2873       C  0.86762254  0.78876464  0.10649230     0.27700
C2874       C  0.85387984  0.75854917  0.11860147    -0.24800
N2875       N  0.92033158  0.72408801  0.11142939    -0.82200
H2876       H  0.94075432  0.78332766  0.08958976     0.13500
C2877       C  0.91390888  0.82826952  0.08272628     0.02900
N2878       N  0.84945572  0.81017951  0.10451705    -0.80800
H2879       H  0.82886074  0.75072396  0.12621125     0.18400
C2880       C  0.89793418  0.82234958  0.06523737    -0.25600
C2881       C  0.91231188  0.85044082  0.05186346     0.36400
C2882       C  0.94305316  0.88548255  0.05631788    -0.19700
C2883       C  0.95868562  0.89109954  0.07404432    -0.24900
C2884       C  0.94445965  0.86279506  0.08725392     0.27800
H2885       H  0.87445552  0.79546043  0.06195846     0.13500
N2886       N  0.89530876  0.84352302  0.03400420    -0.82200
H2887       H  0.98225693  0.91767610  0.07763869     0.18400
N2888       N  0.96098175  0.86877210  0.10521031    -0.80800
H2889       H  0.87141689  0.81747854  0.03359520     0.34000
H2890       H  0.91349102  0.84214696  0.02462207     0.38500
H2891       H  0.98349645  0.89566114  0.10632539     0.34000
H2892       H  0.94154999  0.86684161  0.11482047     0.30700
H2893       H  0.82640321  0.79980323  0.11308243     0.34000
H2894       H  0.86768232  0.83713137  0.10909664     0.30700
H2895       H  0.93130911  0.72792540  0.12469010     0.38500
H2896       H  0.94255091  0.73356081  0.10236242     0.34000
C2897       C  0.76296352  0.63372382  0.11667954    -0.19700
C2898       C  0.73455915  0.59598898  0.11608402     0.36500
C2899       C  0.70732311  0.58448692  0.10249733    -0.25700
C2900       C  0.70773671  0.60940771  0.08946353     0.02900
C2901       C  0.73574591  0.64681757  0.08994116     0.27700
C2902       C  0.76324516  0.65856695  0.10349751    -0.24800
N2903       N  0.73299024  0.56820197  0.12836706    -0.82200
H2904       H  0.68568793  0.55564513  0.10199952     0.13500
C2905       C  0.67805422  0.59570017  0.07560539     0.02900
N2906       N  0.73606889  0.67259057  0.07667949    -0.80800
H2907       H  0.78503273  0.68733853  0.10385184     0.18400
C2908       C  0.64804671  0.60100741  0.07866949    -0.25600
C2909       C  0.61759281  0.58545961  0.06675629     0.36400
C2910       C  0.61722297  0.56399951  0.05154734    -0.19700
C2911       C  0.64808532  0.56006679  0.04806801    -0.24900
C2912       C  0.67855114  0.57565477  0.06006312     0.27800
H2913       H  0.64815578  0.61674675  0.09060534     0.13500
N2914       N  0.58701493  0.59133394  0.07004026    -0.82200
H2915       H  0.64788163  0.54378570  0.03635427     0.18400
N2916       N  0.70959665  0.57053993  0.05683923    -0.80800
H2917       H  0.59156336  0.60752386  0.08183646     0.34000
H2918       H  0.58556324  0.60664281  0.05899484     0.38500
H2919       H  0.70552210  0.55481951  0.04491320     0.34000
H2920       H  0.73246897  0.59669015  0.05440551     0.30700
H2921       H  0.75842215  0.69916982  0.07903554     0.34000
H2922       H  0.74012559  0.66429381  0.06371556     0.30700
H2923       H  0.75513194  0.57902314  0.13742480     0.38500
H2924       H  0.70928271  0.55880809  0.13637692     0.34000
C2925       C  0.86417541  0.62497976  0.11930749    -0.19700
C2926       C  0.90099934  0.63214966  0.12019416     0.36500
C2927       C  0.91317090  0.61593868  0.10709884    -0.25700
C2928       C  0.88995973  0.59361879  0.09293644     0.02900
C2929       C  0.85340243  0.58624466  0.09200123     0.27700
C2930       C  0.84088371  0.60200300  0.10520745    -0.24800
N2931       N  0.92746016  0.65716019  0.13330785    -0.82200
H2932       H  0.94140940  0.62169652  0.10764715     0.13500
C2933       C  0.90468042  0.57865376  0.07900559     0.02900
N2934       N  0.82923122  0.56281393  0.07767281    -0.80800
H2935       H  0.81276042  0.59655551  0.10445181     0.18400
C2936       C  0.90137379  0.54386340  0.08191135    -0.25600
C2937       C  0.91673918  0.52948579  0.06948201     0.36400
C2938       C  0.93563510  0.55043157  0.05381931    -0.19700
C2939       C  0.93798961  0.58486350  0.05067768    -0.24900
C2940       C  0.92295002  0.59939422  0.06327348     0.27800
H2941       H  0.88715319  0.52815629  0.09404372     0.13500
N2942       N  0.91317170  0.99353161  0.07261903    -0.82200
H2943       H  0.95268813  0.60097636  0.03873195     0.18400
N2944       N  0.92708729  0.63553601  0.06050331    -0.80800
H2945       H  0.89874504  0.98190455  0.08478882     0.34000
H2946       H  0.89725156  0.97597825  0.06191438     0.38500
H2947       H  0.94187570  0.64748648  0.04846114     0.34000
H2948       H  0.90084471  0.63210759  0.05852891     0.30700
H2949       H  0.80304649  0.55983147  0.07909637     0.34000
H2950       H  0.83957862  0.57620699  0.06512462     0.30700
H2951       H  0.91692885  0.67054121  0.14123706     0.38500
H2952       H  0.93391336  0.64146326  0.14220114     0.34000
C2953       C  0.85846367  0.61865795  0.16172607    -0.19700
C2954       C  0.84787835  0.58124668  0.15745177     0.36500
C2955       C  0.86667598  0.56492453  0.16550786    -0.25700
C2956       C  0.89446389  0.58377815  0.17863106     0.02900
C2957       C  0.90238421  0.61957240  0.18439582     0.27700
C2958       C  0.88436370  0.63663984  0.17584098    -0.24800
N2959       N  0.81758825  0.55842249  0.14546889    -0.82200
H2960       H  0.85978017  0.53723382  0.16115356     0.13500
C2961       C  0.91573384  0.56606330  0.18550719     0.02900
N2962       N  0.92906401  0.63864725  0.19868577    -0.80800
H2963       H  0.89170403  0.66468196  0.17968710     0.18400
C2964       C  0.95440365  0.58585859  0.18464996    -0.25600
C2965       C  0.97542852  0.56979866  0.19043835     0.36400
C2966       C  0.95757255  0.53306615  0.19698940    -0.19700
C2967       C  0.91901138  0.51260493  0.19694188    -0.24900
C2968       C  0.89788300  0.52889570  0.19175468     0.27800
H2969       H  0.96826539  0.61391404  0.17932225     0.13500
N2970       N  0.51486603  0.59071922  0.18981378    -0.82200
H2971       H  0.90528037  0.98418173  0.20179520     0.18400
N2972       N  0.85843018  0.50813617  0.19328913    -0.80800
H2973       H  0.52387250  0.61774214  0.18523840     0.34000
H2974       H  0.52307426  0.57813739  0.17986308     0.38500
H2975       H  0.84967881  0.98138520  0.19827907     0.34000
H2976       H  0.85080728  0.52124771  0.20323229     0.30700
H2977       H  0.93184968  0.66471127  0.20123024     0.34000
H2978       H  0.91889743  0.62327096  0.21076981     0.30700
H2979       H  0.80440691  0.57245534  0.14083315     0.38500
H2980       H  0.82795696  0.55145897  0.13399650     0.34000
C2981       C  0.57239652  0.53859693  0.19427764    -0.19700
C2982       C  0.59079965  0.51930460  0.18924811     0.36500
C2983       C  0.62626547  0.53887165  0.18153685    -0.25700
C2984       C  0.64496552  0.57779508  0.18005910     0.02900
C2985       C  0.62652639  0.59708364  0.18533342     0.27700
C2986       C  0.59021465  0.57712180  0.19188382    -0.24800
N2987       N  0.57420405  0.48025757  0.19277362    -0.82200
H2988       H  0.63995519  0.52379242  0.17730658     0.13500
C2989       C  0.68386578  0.59791986  0.17331157     0.02900
N2990       N  0.64525332  0.63697902  0.18488381    -0.80800
H2991       H  0.57676494  0.59212089  0.19644307     0.18400
C2992       C  0.69411464  0.62553263  0.15986900    -0.25600
C2993       C  0.73038059  0.64575854  0.15351324     0.36400
C2994       C  0.75619191  0.63482465  0.15877478    -0.19700
C2995       C  0.74657956  0.60818910  0.17266194    -0.24900
C2996       C  0.71103889  0.59048230  0.18041387     0.27800
H2997       H  0.67395148  0.63214143  0.15446886     0.13500
N2998       N  0.74004080  0.67748241  0.14203805    -0.82200
H2999       H  0.76657936  0.60054432  0.17716667     0.18400
N3000       N  0.70248630  0.56508581  0.19545782    -0.80800
H3001       H  0.73387744  0.69539032  0.14936185     0.34000
H3002       H  0.76841492  0.69272375  0.13990834     0.38500
H3003       H  0.72550505  0.56292087  0.19910053     0.34000
H3004       H  0.69628698  0.57638927  0.20684462     0.30700
H3005       H  0.62782449  0.64678800  0.18918965     0.34000
H3006       H  0.66686325  0.64680731  0.19440237     0.30700
H3007       H  0.57291494  0.97679078  0.20704068     0.38500
H3008       H  0.59095904  0.97003048  0.18793681     0.34000
C3009       C  0.86852933  0.73818193  0.16166958    -0.19700
C3010       C  0.90630580  0.75804282  0.16662492     0.36500
C3011       C  0.92157311  0.79436060  0.17357850    -0.25700
C3012       C  0.90041293  0.81186695  0.17541740     0.02900
C3013       C  0.86280514  0.79194617  0.17051606     0.27700
C3014       C  0.84707917  0.75514390  0.16418132    -0.24800
N3015       N  0.93026918  0.74286709  0.16429691    -0.82200
H3016       H  0.95049697  0.80931665  0.17730715     0.13500
C3017       C  0.91840107  0.85106465  0.18221144     0.02900
N3018       N  0.84093653  0.80963276  0.17094913    -0.80800
H3019       H  0.81837389  0.74053473  0.16007273     0.18400
C3020       C  0.95052731  0.87859837  0.17363596    -0.25600
C3021       C  0.97029046  0.91491950  0.18085845     0.36400
C3022       C  0.95778940  0.92422167  0.19694007    -0.19700
C3023       C  0.92393595  0.89747094  0.20446384    -0.24900
C3024       C  0.90501683  0.86095927  0.19771420     0.27800
H3025       H  0.96091633  0.87159336  0.16152868     0.13500
N3026       N  0.00361088  0.94164238  0.17212791    -0.82200
H3027       H  0.91282816  0.90435608  0.21631016     0.18400
N3028       N  0.87339333  0.83352986  0.20736257    -0.80800
H3029       H  0.02109386  0.93047406  0.17138448     0.34000
H3030       H  0.99717257  0.94522121  0.15866119     0.38500
H3031       H  0.88152925  0.83268967  0.22084099     0.34000
H3032       H  0.85395987  0.84231806  0.20783043     0.30700
H3033       H  0.83115790  0.80901157  0.15763389     0.34000
H3034       H  0.81820523  0.79396456  0.17940176     0.30700
H3035       H  0.91604619  0.71599059  0.15903063     0.38500
H3036       H  0.93966864  0.74084038  0.17733947     0.34000
C3037       C  0.88852167  0.94382421  0.96665447    -0.19700
C3038       C  0.86765648  0.90551759  0.96212188     0.36500
C3039       C  0.83951875  0.89357494  0.94887063    -0.25700
C3040       C  0.83222536  0.91886668  0.93972786     0.02900
C3041       C  0.85338311  0.95698842  0.94382727     0.27700
C3042       C  0.88104932  0.96901975  0.95730177    -0.24800
N3043       N  0.87453527  0.87868959  0.97104235    -0.82200
H3044       H  0.82292387  0.86424590  0.94571023     0.13500
C3045       C  0.80115457  0.90477061  0.92651741     0.02900
N3046       N  0.84665660  0.98330430  0.93425310    -0.80800
H3047       H  0.89704429  0.99841556  0.96037476     0.18400
C3048       C  0.77238284  0.91202139  0.92987243    -0.25600
C3049       C  0.74170243  0.89811958  0.91816631     0.36400
C3050       C  0.73936779  0.87570357  0.90303581    -0.19700
C3051       C  0.76818032  0.86841957  0.89968440    -0.24900
C3052       C  0.79941984  0.88333011  0.91108294     0.27800
H3053       H  0.77380926  0.92842910  0.94178200     0.13500
N3054       N  0.71300595  0.90678272  0.92156721    -0.82200
H3055       H  0.76605865  0.85059231  0.88830020     0.18400
N3056       N  0.82933280  0.87679191  0.90710055    -0.80800
H3057       H  0.71865037  0.92300192  0.93344128     0.34000
H3058       H  0.71302580  0.92309677  0.91065939     0.38500
H3059       H  0.82366251  0.86045347  0.89526383     0.34000
H3060       H  0.85243411  0.90245626  0.90411691     0.30700
H3061       H  0.86449907  0.01029535  0.93891575     0.34000
H3062       H  0.85275583  0.98255946  0.92036826     0.30700
H3063       H  0.89974434  0.88271678  0.96616810     0.38500
H3064       H  0.85484885  0.85170560  0.96714540     0.34000
C3065       C  0.55823628  0.61392220  0.96906812    -0.19700
C3066       C  0.54531147  0.63956361  0.96786551     0.36500
C3067       C  0.56070139  0.66821992  0.95477085    -0.25700
C3068       C  0.58892621  0.67215534  0.94302090     0.02900
C3069       C  0.60224883  0.64709754  0.94434238     0.27700
C3070       C  0.58695075  0.61842826  0.95738909    -0.24800
N3071       N  0.51695109  0.63677895  0.97999432    -0.82200
H3072       H  0.55097174  0.68794043  0.95384011     0.13500
C3073       C  0.60486728  0.70318030  0.92964583     0.02900
N3074       N  0.63092004  0.65059727  0.93222856    -0.80800
H3075       H  0.59699383  0.59895258  0.95810423     0.18400
C3076       C  0.64193583  0.73077624  0.93145129    -0.25600
C3077       C  0.65799476  0.76092943  0.91926857     0.36400
C3078       C  0.63654153  0.76339084  0.90496092    -0.19700
C3079       C  0.59940652  0.73584819  0.90316912    -0.24900
C3080       C  0.58335975  0.70562488  0.91534843     0.27800
H3081       H  0.65827525  0.72885637  0.94251418     0.13500
N3082       N  0.69600385  0.78904664  0.92133377    -0.82200
H3083       H  0.58289519  0.73814242  0.89231287     0.18400
N3084       N  0.54538253  0.67742041  0.91329350    -0.80800
H3085       H  0.70783150  0.78337346  0.93264497     0.34000
H3086       H  0.71006163  0.78796875  0.90968715     0.38500
H3087       H  0.53338432  0.68348304  0.90218861     0.34000
H3088       H  0.54471545  0.65256297  0.91004159     0.30700
H3089       H  0.63771101  0.63003495  0.93498099     0.34000
H3090       H  0.62049323  0.64591494  0.91880807     0.30700
H3091       H  0.02770194  0.64202762  0.99335501     0.38500
H3092       H  0.01026868  0.65735195  0.97705167     0.34000
C3093       C  0.54917611  0.93106793  0.97076144    -0.19700
C3094       C  0.52484881  0.89956726  0.96010774     0.36500
C3095       C  0.53935245  0.88513505  0.94716322    -0.25700
C3096       C  0.57741529  0.90063622  0.94499616     0.02900
C3097       C  0.60168124  0.93055133  0.95630307     0.27700
C3098       C  0.58735643  0.94579847  0.96885552    -0.24800
N3099       N  0.48558621  0.88308527  0.96189316    -0.82200
H3100       H  0.52088536  0.86200566  0.93848779     0.13500
C3101       C  0.59174428  0.88634771  0.93037652     0.02900
N3102       N  0.64080046  0.94539361  0.95488769    -0.80800
H3103       H  0.60617102  0.96940085  0.97717311     0.18400
C3104       C  0.61449787  0.91089062  0.91679484    -0.25600
C3105       C  0.63143787  0.89996116  0.90358413     0.36400
C3106       C  0.62450781  0.86285760  0.90357292    -0.19700
C3107       C  0.60052076  0.83792159  0.91677864    -0.24900
C3108       C  0.58409851  0.84926632  0.93021476     0.27800
H3109       H  0.62025161  0.93938918  0.91687429     0.13500
N3110       N  0.65714345  0.92808999  0.89142682    -0.82200
H3111       H  0.59525473  0.80958908  0.91683474     0.18400
N3112       N  0.56054231  0.82361914  0.94395819    -0.80800
H3113       H  0.64228936  0.93593154  0.88275486     0.34000
H3114       H  0.67055441  0.91819000  0.88315679     0.38500
H3115       H  0.55762969  0.79738328  0.94182833     0.34000
H3116       H  0.57355962  0.83301755  0.95670534     0.30700
H3117       H  0.65473730  0.46709156  0.96426553     0.34000
H3118       H  0.64638933  0.92450019  0.95882912     0.30700
H3119       H  0.97830502  0.86986219  0.97466884     0.38500
H3120       H  0.97194391  0.86216863  0.95206380     0.34000
C3121       C  0.62036176  0.85974930  0.86162742    -0.19700
C3122       C  0.58201247  0.84458051  0.86457503     0.36500
C3123       C  0.56420095  0.86276775  0.85739432    -0.25700
C3124       C  0.58342748  0.89563343  0.84727356     0.02900
C3125       C  0.62099294  0.90936759  0.84323685     0.27700
C3126       C  0.63894981  0.89092061  0.85023760    -0.24800
N3127       N  0.56017531  0.81080839  0.87465704    -0.82200
H3128       H  0.53514720  0.85160414  0.86016895     0.13500
C3129       C  0.56372784  0.91526593  0.84109425     0.02900
N3130       N  0.64090610  0.94246545  0.83244368    -0.80800
H3131       H  0.66819453  0.90241737  0.84789238     0.18400
C3132       C  0.57583728  0.95177612  0.84707490    -0.25600
C3133       C  0.55844510  0.97148936  0.84102187     0.36400
C3134       C  0.52855763  0.95433697  0.82863640    -0.19700
C3135       C  0.51493246  0.91697145  0.82375625    -0.24900
C3136       C  0.53259388  0.89752763  0.82952656     0.27800
H3137       H  0.59923486  0.96503949  0.85632500     0.13500
N3138       N  0.57203389  0.50920735  0.84678776    -0.82200
H3139       H  0.49170873  0.90366606  0.81440006     0.18400
N3140       N  0.51993164  0.86033080  0.82309683    -0.80800
H3141       H  0.59548116  0.51830955  0.85502505     0.34000
H3142       H  0.55203077  0.50965338  0.85517821     0.38500
H3143       H  0.49679862  0.85135437  0.81463385     0.34000
H3144       H  0.54069966  0.86094203  0.81487731     0.30700
H3145       H  0.66833953  0.94911479  0.83087860     0.34000
H3146       H  0.62921645  0.93675045  0.81928819     0.30700
H3147       H  0.57569651  0.79895950  0.87909209     0.38500
H3148       H  0.55006868  0.81731613  0.88638043     0.34000
C3149       C  0.54399908  0.57230577  0.82879004    -0.19700
C3150       C  0.58290928  0.59200809  0.82828931     0.36500
C3151       C  0.60220912  0.62797028  0.83584550    -0.25700
C3152       C  0.58342477  0.64412074  0.84424975     0.02900
C3153       C  0.54484196  0.62282675  0.84639733     0.27700
C3154       C  0.52546653  0.58705831  0.83860143    -0.24800
N3155       N  0.60269809  0.57506103  0.82067610    -0.82200
H3156       H  0.63195200  0.64384040  0.83478685     0.13500
C3157       C  0.60419778  0.68359024  0.85035493     0.02900
N3158       N  0.52553872  0.63792017  0.85626054    -0.80800
H3159       H  0.99568374  0.57131142  0.83944884     0.18400
C3160       C  0.59554845  0.70930225  0.84265373    -0.25600
C3161       C  0.61239973  0.74627278  0.84901949     0.36400
C3162       C  0.63879748  0.75786155  0.86329664    -0.19700
C3163       C  0.64984859  0.73289078  0.86968369    -0.24900
C3164       C  0.63213366  0.69568530  0.86378697     0.27800
H3165       H  0.57471198  0.70010532  0.83197437     0.13500
N3166       N  0.60187752  0.77149417  0.84139377    -0.82200
H3167       H  0.67110838  0.74197309  0.88012576     0.18400
N3168       N  0.64140951  0.66984921  0.87189007    -0.80800
H3169       H  0.58302286  0.75887244  0.83064135     0.34000
H3170       H  0.58803542  0.77725423  0.85164316     0.38500
H3171       H  0.66237576  0.68315474  0.88165822     0.34000
H3172       H  0.61825583  0.65007810  0.87902868     0.30700
H3173       H  0.99730984  0.61880976  0.85658076     0.34000
H3174       H  0.53476238  0.64202187  0.86989951     0.30700
H3175       H  0.59782625  0.57174353  0.80656554     0.38500
H3176       H  0.63108871  0.59256909  0.82225386     0.34000
C3177       C  0.73998269  0.87904769  0.86128495    -0.19700
C3178       C  0.76427147  0.91760018  0.86430792     0.36500
C3179       C  0.80005600  0.93469447  0.85717022    -0.25700
C3180       C  0.81219236  0.91512736  0.84620999     0.02900
C3181       C  0.78705475  0.87758817  0.84179493     0.27700
C3182       C  0.75135785  0.85986787  0.84951189    -0.24800
N3183       N  0.75360459  0.94050649  0.87435450    -0.82200
H3184       H  0.81874481  0.96362436  0.86044031     0.13500
C3185       C  0.85131269  0.93421217  0.83968147     0.02900
N3186       N  0.79805386  0.85750601  0.82967208    -0.80800
H3187       H  0.73291041  0.83056288  0.84697680     0.18400
C3188       C  0.87325996  0.91793341  0.84303408    -0.25600
C3189       C  0.90978720  0.93432126  0.83658133     0.36400
C3190       C  0.92492349  0.96797678  0.82679703    -0.19700
C3191       C  0.90363637  0.98507293  0.82406657    -0.24900
C3192       C  0.86699885  0.96853067  0.83028632     0.27800
H3193       H  0.86162574  0.89200116  0.85051254     0.13500
N3194       N  0.93074294  0.91580002  0.83894929    -0.82200
H3195       H  0.91524991  0.01071906  0.81632635     0.18400
N3196       N  0.84534403  0.98588255  0.82656272    -0.80800
H3197       H  0.91503667  0.89043687  0.84565549     0.34000
H3198       H  0.95287678  0.93222086  0.84765762     0.38500
H3199       H  0.86098413  0.01097543  0.81961605     0.34000
H3200       H  0.82400597  0.96841304  0.81767088     0.30700
H3201       H  0.77649697  0.83030002  0.82780375     0.34000
H3202       H  0.80334911  0.87030391  0.81679248     0.30700
H3203       H  0.72595180  0.92574128  0.87796174     0.38500
H3204       H  0.76912687  0.94917922  0.88647552     0.34000
C3205       C  0.92998619  0.96720460  0.78533517    -0.19700
C3206       C  0.92803791  0.98860615  0.77087474     0.36500
C3207       C  0.89945072  0.97220711  0.75803995    -0.25700
C3208       C  0.87249786  0.93472838  0.75946950     0.02900
C3209       C  0.87403369  0.91310439  0.77398437     0.27700
C3210       C  0.90306222  0.92956893  0.78676716    -0.24800
N3211       N  0.95469240  0.52702455  0.76927658    -0.82200
H3212       H  0.89810382  0.98888244  0.74693962     0.13500
C3213       C  0.84193910  0.91938217  0.74608822     0.02900
N3214       N  0.84613402  0.87473761  0.77567693    -0.80800
H3215       H  0.90511488  0.91290450  0.79764127     0.18400
C3216       C  0.83829742  0.89213318  0.73350976    -0.25600
C3217       C  0.81018982  0.87824443  0.72016828     0.36400
C3218       C  0.78525809  0.89189782  0.71962281    -0.19700
C3219       C  0.78947624  0.91952807  0.73215771    -0.24900
C3220       C  0.81730966  0.93310681  0.74549127     0.27800
H3221       H  0.85771919  0.88209568  0.73399034     0.13500
N3222       N  0.80714549  0.85072891  0.70714950    -0.82200
H3223       H  0.77024066  0.92980232  0.73196566     0.18400
N3224       N  0.82046707  0.96046791  0.75864340    -0.80800
H3225       H  0.82739629  0.84352151  0.70959681     0.34000
H3226       H  0.81237269  0.86278334  0.69408860     0.38500
H3227       H  0.80025929  0.96777829  0.75631026     0.34000
H3228       H  0.81531084  0.94826168  0.77166818     0.30700
H3229       H  0.85140316  0.86280585  0.78709322     0.34000
H3230       H  0.82113934  0.87383266  0.77824659     0.30700
H3231       H  0.94086144  0.54213946  0.76967786     0.38500
H3232       H  0.96741166  0.53131626  0.75644314     0.34000
C3233       C  0.61702718  0.72012941  0.72207769    -0.19700
C3234       C  0.64059415  0.71515127  0.73430632     0.36500
C3235       C  0.62545533  0.68543505  0.74683191    -0.25700
C3236       C  0.58740682  0.66063120  0.74744361     0.02900
C3237       C  0.56398434  0.66515827  0.73506250     0.27700
C3238       C  0.57895882  0.69506767  0.72270141    -0.24800
N3239       N  0.67961940  0.74067613  0.73432513    -0.82200
H3240       H  0.64332639  0.68196407  0.75643285     0.13500
C3241       C  0.57227805  0.63024894  0.76124274     0.02900
N3242       N  0.52509289  0.63908854  0.73497763    -0.80800
H3243       H  0.56078566  0.69853122  0.71331187     0.18400
C3244       C  0.54564854  0.62775335  0.77375896    -0.25600
C3245       C  0.52899420  0.59840816  0.78629644     0.36400
C3246       C  0.54036317  0.57149598  0.78686309    -0.19700
C3247       C  0.56703112  0.57405471  0.77435033    -0.24900
C3248       C  0.58317303  0.60315092  0.76157252     0.27800
H3249       H  0.53684710  0.64825448  0.77338360     0.13500
N3250       N  0.49897759  0.59559627  0.79709373    -0.82200
H3251       H  0.57489196  0.55282462  0.77439991     0.18400
N3252       N  0.60992278  0.60481503  0.74865957    -0.80800
H3253       H  0.50975873  0.61763669  0.80648256     0.34000
H3254       H  0.98572497  0.57093349  0.80452311     0.38500
H3255       H  0.61502087  0.58289360  0.75080187     0.34000
H3256       H  0.59849976  0.60110710  0.73549358     0.30700
H3257       H  0.51168393  0.64636365  0.72508068     0.34000
H3258       H  0.52152600  0.61327937  0.73102232     0.30700
H3259       H  0.68375810  0.76646267  0.73872736     0.38500
H3260       H  0.69293758  0.73261056  0.74389690     0.34000
C3261       C  0.61217228  0.88840842  0.72513396    -0.19700
C3262       C  0.62464227  0.92684312  0.72650145     0.36500
C3263       C  0.60958212  0.93955328  0.73996375    -0.25700
C3264       C  0.58234065  0.91476418  0.75198139     0.02900
C3265       C  0.57009597  0.87651441  0.75080814     0.27700
C3266       C  0.58498509  0.86366377  0.73729994    -0.24800
N3267       N  0.65187392  0.95273235  0.71399653    -0.82200
H3268       H  0.61845929  0.96888244  0.74082932     0.13500
C3269       C  0.56554182  0.92926418  0.76501748     0.02900
N3270       N  0.54272896  0.85102161  0.76338164    -0.80800
H3271       H  0.57572798  0.83425543  0.73645433     0.18400
C3272       C  0.52788159  0.91725278  0.76336894    -0.25600
C3273       C  0.51147485  0.93237495  0.77452425     0.36400
C3274       C  0.53297398  0.95977573  0.78753324    -0.19700
C3275       C  0.57049709  0.97149039  0.78942477    -0.24900
C3276       C  0.58706257  0.95634890  0.77828352     0.27800
H3277       H  0.51133332  0.89658108  0.75312517     0.13500
N3278       N  0.97293842  0.91969260  0.77274518    -0.82200
H3279       H  0.58688780  0.49271720  0.79949223     0.18400
N3280       N  0.62558282  0.96846051  0.78023975    -0.80800
H3281       H  0.96779604  0.92433073  0.75921028     0.34000
H3282       H  0.95845707  0.89107817  0.77510344     0.38500
H3283       H  0.63742507  0.48851223  0.79063538     0.34000
H3284       H  0.62776604  0.94562546  0.78452213     0.30700
H3285       H  0.53672505  0.82383438  0.76067942     0.34000
H3286       H  0.55404722  0.85760559  0.77661725     0.30700
H3287       H  0.64023695  0.94679252  0.70082197     0.38500
H3288       H  0.65823009  0.97990114  0.71705506     0.34000
C3289       C  0.69679131  0.79672078  0.44970010    -0.19700
C3290       C  0.71498841  0.81412372  0.43319458     0.36500
C3291       C  0.72676999  0.79593540  0.42110638    -0.25700
C3292       C  0.72115529  0.76067314  0.42509403     0.02900
C3293       C  0.70246833  0.74252169  0.44126206     0.27700
C3294       C  0.68984121  0.76044587  0.45324677    -0.24800
N3295       N  0.72278018  0.85075289  0.42871733    -0.82200
H3296       H  0.74132113  0.80992044  0.40867864     0.13500
C3297       C  0.73717441  0.74451482  0.41257224     0.02900
N3298       N  0.69731479  0.70652741  0.44566095    -0.80800
H3299       H  0.67484115  0.74617126  0.46550381     0.18400
C3300       C  0.77385351  0.75364378  0.41525453    -0.25600
C3301       C  0.79130911  0.74131401  0.40293270     0.36400
C3302       C  0.77167512  0.71987246  0.38745133    -0.19700
C3303       C  0.73474174  0.71046711  0.38492321    -0.24900
C3304       C  0.71733930  0.72282724  0.39729847     0.27800
H3305       H  0.78888588  0.77055695  0.42700933     0.13500
N3306       N  0.82856544  0.74981888  0.40630567    -0.82200
H3307       H  0.71959279  0.69382397  0.37312847     0.18400
N3308       N  0.68001956  0.71432148  0.39418895    -0.80800
H3309       H  0.83904608  0.76602334  0.41818562     0.34000
H3310       H  0.82798424  0.72478788  0.40891695     0.38500
H3311       H  0.66955194  0.69867351  0.38214790     0.34000
H3312       H  0.66396671  0.69753632  0.40499283     0.30700
H3313       H  0.68381797  0.69737719  0.45827281     0.34000
H3314       H  0.67990872  0.68780992  0.43569917     0.30700
H3315       H  0.70996257  0.84958838  0.41618427     0.38500
H3316       H  0.75121961  0.86715641  0.42680425     0.34000
C3317       C  0.59234831  0.79844616  0.45484008    -0.19700
C3318       C  0.56262064  0.80534241  0.45734927     0.36500
C3319       C  0.53230662  0.78876245  0.44533227    -0.25700
C3320       C  0.53165991  0.76699846  0.43043146     0.02900
C3321       C  0.56149933  0.76101554  0.42755941     0.27700
C3322       C  0.59122809  0.77636001  0.43990928    -0.24800
N3323       N  0.56304236  0.83073566  0.47091928    -0.82200
H3324       H  0.50966701  0.79407334  0.44721503     0.13500
C3325       C  0.50058450  0.75212777  0.41724472     0.02900
N3326       N  0.56196657  0.74032729  0.41177349    -0.80800
H3327       H  0.61398912  0.77134429  0.43775180     0.18400
C3328       C  0.50221281  0.77391876  0.40218542    -0.25600
C3329       C  0.97438483  0.75993484  0.38867730     0.36400
C3330       C  0.94462470  0.72330647  0.39025815    -0.19700
C3331       C  0.94300955  0.70164558  0.40543296    -0.24900
C3332       C  0.97050078  0.71589462  0.41909096     0.27800
H3333       H  0.52553110  0.80174492  0.40088541     0.13500
N3334       N  0.97654064  0.78249572  0.37323678    -0.82200
H3335       H  0.91978237  0.67378227  0.40682495     0.18400
N3336       N  0.96763459  0.69411135  0.43500524    -0.80800
H3337       H  0.00001823  0.80877649  0.37420980     0.34000
H3338       H  0.97964872  0.76999915  0.36139328     0.38500
H3339       H  0.94339407  0.66837300  0.43446768     0.34000
H3340       H  0.98941959  0.68863732  0.43467688     0.30700
H3341       H  0.58646106  0.73941640  0.41135277     0.34000
H3342       H  0.54066783  0.71293509  0.41325372     0.30700
H3343       H  0.58806455  0.84451960  0.47792636     0.38500
H3344       H  0.54242518  0.81537969  0.48048980     0.34000
C3345       C  0.70026373  0.90847276  0.45575965    -0.19700
C3346       C  0.68095429  0.92759671  0.45261256     0.36500
C3347       C  0.69602864  0.95836010  0.44071890    -0.25700
C3348       C  0.72942136  0.96935833  0.43153147     0.02900
C3349       C  0.74868071  0.95011806  0.43483602     0.27700
C3350       C  0.73410592  0.92035234  0.44713406    -0.24800
N3351       N  0.64590256  0.91524160  0.46119828    -0.82200
H3352       H  0.68138365  0.97332146  0.43829429     0.13500
C3353       C  0.74380257  0.00032752  0.41812334     0.02900
N3354       N  0.78245828  0.96022078  0.42530374    -0.80800
H3355       H  0.74899889  0.90582650  0.44976552     0.18400
C3356       C  0.78022180  0.52961941  0.42003181    -0.25600
C3357       C  0.79628692  0.55755346  0.40670165     0.36400
C3358       C  0.77532073  0.55636538  0.39122551    -0.19700
C3359       C  0.73847582  0.52801794  0.38970207    -0.24900
C3360       C  0.72258777  0.99966128  0.40286026     0.27800
H3361       H  0.79621566  0.53046443  0.43194511     0.13500
N3362       N  0.83358819  0.58732554  0.40895201    -0.82200
H3363       H  0.72231669  0.52748370  0.37792570     0.18400
N3364       N  0.68545162  0.96967580  0.40050416    -0.80800
H3365       H  0.84521697  0.58378948  0.42097771     0.34000
H3366       H  0.83279666  0.61192096  0.41064031     0.38500
H3367       H  0.67364188  0.97353037  0.38863147     0.34000
H3368       H  0.68659389  0.94534762  0.39846943     0.30700
H3369       H  0.79323377  0.94343801  0.42942026     0.34000
H3370       H  0.77621300  0.95495060  0.41130372     0.30700
H3371       H  0.62760676  0.88929576  0.45555533     0.38500
H3372       H  0.63561641  0.93279158  0.45776520     0.34000
C3373       C  0.80394215  0.71155435  0.57045250    -0.19700
C3374       C  0.82540329  0.73715264  0.58426866     0.36500
C3375       C  0.80895242  0.75086812  0.59629092    -0.25700
C3376       C  0.77147406  0.73938541  0.59484426     0.02900
C3377       C  0.74999329  0.71432759  0.58081375     0.27700
C3378       C  0.76654391  0.70063020  0.56867951    -0.24800
N3379       N  0.86396261  0.74943344  0.58588898    -0.82200
H3380       H  0.82542418  0.77069902  0.60686672     0.13500
C3381       C  0.75536324  0.75397713  0.60825233     0.02900
N3382       N  0.71143220  0.70233795  0.57924728    -0.80800
H3383       H  0.75012056  0.68063047  0.55815787     0.18400
C3384       C  0.73949128  0.77453903  0.60189077    -0.25600
C3385       C  0.72424529  0.78928283  0.61414127     0.36400
C3386       C  0.72543746  0.78365637  0.63336437    -0.19700
C3387       C  0.74207831  0.76350621  0.63963266    -0.24900
C3388       C  0.75686392  0.74846402  0.62727968     0.27800
H3389       H  0.73900675  0.77906540  0.58723648     0.13500
N3390       N  0.70780691  0.80994404  0.60699471    -0.82200
H3391       H  0.74336773  0.75914711  0.65423769     0.18400
N3392       N  0.77327222  0.72744710  0.63394717    -0.80800
H3393       H  0.71186264  0.81373028  0.59279533     0.34000
H3394       H  0.67934754  0.79374793  0.60886683     0.38500
H3395       H  0.77249411  0.72622997  0.64831514     0.34000
H3396       H  0.75720212  0.70018635  0.62918931     0.30700
H3397       H  0.69968468  0.68398921  0.56817523     0.34000
H3398       H  0.69849261  0.68742693  0.59113559     0.30700
H3399       H  0.87666251  0.76539550  0.57426045     0.38500
H3400       H  0.87546392  0.76709822  0.59722176     0.34000
C3401       C  0.55355930  0.77740747  0.63701462    -0.19700
C3402       C  0.51683496  0.76449244  0.64262980     0.36500
C3403       C  0.98838484  0.74875438  0.62949865    -0.25700
C3404       C  0.99597886  0.74666031  0.61089327     0.02900
C3405       C  0.53246823  0.76014446  0.60515513     0.27700
C3406       C  0.56081571  0.77516020  0.61825394    -0.24800
N3407       N  0.50853647  0.76809041  0.66144441    -0.82200
H3408       H  0.96016710  0.73882233  0.63368144     0.13500
C3409       C  0.96542939  0.73105584  0.59747851     0.02900
N3410       N  0.54051011  0.75847452  0.58605314    -0.80800
H3411       H  0.58879619  0.78501675  0.61370720     0.18400
C3412       C  0.96448212  0.75398304  0.58363585    -0.25600
C3413       C  0.93521207  0.74081467  0.57113997     0.36400
C3414       C  0.90633135  0.70343485  0.57246746    -0.19700
C3415       C  0.90725235  0.68078009  0.58648125    -0.24900
C3416       C  0.93688992  0.69396258  0.59877995     0.27800
H3417       H  0.98625122  0.78271925  0.58285842     0.13500
N3418       N  0.93496906  0.76682416  0.55820223    -0.82200
H3419       H  0.88484210  0.65252269  0.58775007     0.18400
N3420       N  0.93830732  0.66986652  0.61252062    -0.80800
H3421       H  0.95677742  0.77423174  0.54906495     0.34000
H3422       H  0.91070539  0.75553259  0.55053393     0.38500
H3423       H  0.91506985  0.64339426  0.61162240     0.34000
H3424       H  0.96104125  0.66671767  0.60958860     0.30700
H3425       H  0.56884128  0.76992481  0.58406369     0.34000
H3426       H  0.52822468  0.73047989  0.58230893     0.30700
H3427       H  0.52041100  0.79645454  0.66430343     0.38500
H3428       H  0.48015302  0.75665861  0.66323648     0.34000
C3429       C  0.72022341  0.95567043  0.63933624    -0.19700
C3430       C  0.74471963  0.99231900  0.64548714     0.36500
C3431       C  0.75780878  0.02186564  0.63284062    -0.25700
C3432       C  0.74756569  0.51551347  0.61436319     0.02900
C3433       C  0.72236304  0.97927196  0.60822056     0.27700
C3434       C  0.70913405  0.94986264  0.62074165    -0.24800
N3435       N  0.75689190  0.99944096  0.66431609    -0.82200
H3436       H  0.77703306  0.55000551  0.63746564     0.13500
C3437       C  0.76445519  0.54613255  0.60094731     0.02900
N3438       N  0.71109464  0.97264164  0.58923894    -0.80800
H3439       H  0.69011909  0.92212003  0.61581953     0.18400
C3440       C  0.79184171  0.54790842  0.58926951    -0.25600
C3441       C  0.80761983  0.57532014  0.57567185     0.36400
C3442       C  0.79484816  0.60072158  0.57338543    -0.19700
C3443       C  0.76766936  0.59915342  0.58524152    -0.24900
C3444       C  0.75217312  0.57190482  0.59900172     0.27800
H3445       H  0.80115098  0.52797054  0.59093886     0.13500
N3446       N  0.83714148  0.57796879  0.56456801    -0.82200
H3447       H  0.75872005  0.61941946  0.58378285     0.18400
N3448       N  0.72412499  0.57023944  0.61098487    -0.80800
H3449       H  0.84299083  0.55697762  0.56790496     0.34000
H3450       H  0.86069484  0.60305143  0.56775631     0.38500
H3451       H  0.71842355  0.59141379  0.60783128     0.34000
H3452       H  0.69995355  0.54516100  0.60839202     0.30700
H3453       H  0.69292525  0.94440901  0.58689311     0.34000
H3454       H  0.69717369  0.48638921  0.58641257     0.30700
H3455       H  0.77322284  0.98729666  0.66658262     0.38500
H3456       H  0.77388766  0.02791851  0.66659991     0.34000
C3457       C  0.71052242  0.80068845  0.49134627    -0.19700
C3458       C  0.69706202  0.77510637  0.50596094     0.36500
C3459       C  0.71868069  0.76072073  0.51306180    -0.25700
C3460       C  0.75345820  0.77114391  0.50566809     0.02900
C3461       C  0.76741094  0.79733636  0.49133905     0.27700
C3462       C  0.74611284  0.81233213  0.48457337    -0.24800
N3463       N  0.66097702  0.76258652  0.51317268    -0.82200
H3464       H  0.70791793  0.74064004  0.52412293     0.13500
C3465       C  0.77450058  0.75370328  0.51281241     0.02900
N3466       N  0.80253294  0.80758898  0.48328291    -0.80800
H3467       H  0.75694334  0.83254105  0.47357687     0.18400
C3468       C  0.76824113  0.71986705  0.50533968    -0.25600
C3469       C  0.78466454  0.70043299  0.51307678     0.36400
C3470       C  0.80826610  0.71550399  0.52848722    -0.19700
C3471       C  0.81733817  0.75137316  0.53454858    -0.24900
C3472       C  0.79968699  0.76990010  0.52740220     0.27800
H3473       H  0.74930737  0.70790369  0.49387000     0.13500
N3474       N  0.77650084  0.66513010  0.50562128    -0.82200
H3475       H  0.83702957  0.76431150  0.54562103     0.18400
N3476       N  0.80581593  0.80412577  0.53552601    -0.80800
H3477       H  0.75932201  0.65845337  0.49411051     0.34000
H3478       H  0.76153666  0.64518738  0.51552258     0.38500
H3479       H  0.82402181  0.81155853  0.54665352     0.34000
H3480       H  0.81863756  0.82507952  0.52573430     0.30700
H3481       H  0.80829535  0.82632536  0.47250894     0.34000
H3482       H  0.82279570  0.82158879  0.49327823     0.30700
H3483       H  0.66355037  0.76882914  0.52722495     0.38500
H3484       H  0.64574282  0.73371941  0.51172730     0.34000
C3485       C  0.79409340  0.59409927  0.53162985    -0.19700
C3486       C  0.75529956  0.57177249  0.53021974     0.36500
C3487       C  0.73986834  0.53581963  0.52270602    -0.25700
C3488       C  0.76148866  0.51930754  0.51867596     0.02900
C3489       C  0.80028338  0.54183144  0.52067293     0.27700
C3490       C  0.81592628  0.57927934  0.52586827    -0.24800
N3491       N  0.73059259  0.58384964  0.53680143    -0.82200
H3492       H  0.71039553  0.52046078  0.52054032     0.13500
C3493       C  0.74321641  0.97912261  0.51237778     0.02900
N3494       N  0.82414032  0.52659553  0.51865754    -0.80800
H3495       H  0.84554998  0.59591894  0.52711267     0.18400
C3496       C  0.76098259  0.96812603  0.49942815    -0.25600
C3497       C  0.74498705  0.93129839  0.49322069     0.36400
C3498       C  0.70774247  0.90627432  0.49702546    -0.19700
C3499       C  0.68999998  0.91591438  0.51042746    -0.24900
C3500       C  0.70806171  0.95135026  0.51889397     0.27800
H3501       H  0.78729155  0.98807392  0.49374476     0.13500
N3502       N  0.76642426  0.91909855  0.48305598    -0.82200
H3503       H  0.66191888  0.89598613  0.51413385     0.18400
N3504       N  0.69078348  0.95895811  0.53404812    -0.80800
H3505       H  0.79356106  0.94072553  0.48159225     0.34000
H3506       H  0.76754725  0.89850098  0.49079927     0.38500
H3507       H  0.66539846  0.93565609  0.53712954     0.34000
H3508       H  0.70758186  0.96420319  0.54560775     0.30700
H3509       H  0.83812935  0.53017737  0.53109111     0.34000
H3510       H  0.84357086  0.04178436  0.50854734     0.30700
H3511       H  0.74471058  0.61046848  0.54247778     0.38500
H3512       H  0.71556868  0.58491393  0.52555189     0.34000
C3513       C  0.59443387  0.78931979  0.49655398    -0.19700
C3514       C  0.57054322  0.75146116  0.49233404     0.36500
C3515       C  0.53510009  0.73269596  0.50013958    -0.25700
C3516       C  0.52310380  0.75096791  0.51212447     0.02900
C3517       C  0.54829137  0.78762557  0.51780707     0.27700
C3518       C  0.58385594  0.80644453  0.51000028    -0.24800
N3519       N  0.58194278  0.73269327  0.47956176    -0.82200
H3520       H  0.51617916  0.70415829  0.49627475     0.13500
C3521       C  0.98380966  0.73171745  0.51811503     0.02900
N3522       N  0.53714504  0.80595148  0.53097277    -0.80800
H3523       H  0.60240369  0.83527027  0.51348049     0.18400
C3524       C  0.97110899  0.70173431  0.53026836    -0.25600
C3525       C  0.93447806  0.68349407  0.53658140     0.36400
C3526       C  0.91019669  0.69624302  0.53112850    -0.19700
C3527       C  0.92204749  0.72422373  0.51779758    -0.24900
C3528       C  0.95863090  0.74207503  0.51121125     0.27800
H3529       H  0.98999245  0.69277098  0.53497563     0.13500
N3530       N  0.92192052  0.65229023  0.54871485    -0.82200
H3531       H  0.90339046  0.73363843  0.51331741     0.18400
N3532       N  0.97021217  0.77043866  0.49742473    -0.80800
H3533       H  0.94336477  0.64725254  0.55195859     0.34000
H3534       H  0.90233297  0.62898321  0.54151942     0.38500
H3535       H  0.94800920  0.77344880  0.49313230     0.34000
H3536       H  0.98915054  0.79565991  0.50349697     0.30700
H3537       H  0.55860249  0.83295029  0.53349087     0.34000
H3538       H  0.53195285  0.79156191  0.54339530     0.30700
H3539       H  0.60463761  0.73225191  0.48526496     0.38500
H3540       H  0.56125434  0.70503573  0.47787243     0.34000
loop_ 
_geom_bond_atom_site_label_1 
_geom_bond_atom_site_label_2 
_geom_bond_distance 
_geom_bond_site_symmetry_2 
_ccdc_geom_bond_type 
C1            H2   1.112       .  S
C1            C7   1.518       .  S
C1            C6   1.520       .  S
C1            C5   1.523       .  S
C3            H4   1.109       .  S
C3            C9   1.557       .  S
C3            C8   1.555       .  S
C3           C10   1.565       .  S
C5            C8   1.374       .  D
C5          C759   1.479       .  S
C6            C9   1.373       .  D
C6          C787   1.482       .  S
C7           C10   1.380       .  D
C7          C718   1.482       .  S
C8          C871   1.502       .  S
C9          C830   1.491       .  S
C10         C815   1.508       .  S
C11          H12   1.110       .  S
C11          C17   1.547       .  S
C11          C16   1.554       .  S
C11          C15   1.552       .  S
C13          H14   1.109       .  S
C13          C19   1.528       .  S
C13          C18   1.536       .  S
C13          C20   1.527       .  S
C15          C18   1.383       .  D
C15         C802   1.497       .  S
C16          C19   1.377       .  D
C16         C858   1.496       .  S
C17          C20   1.373       .  D
C17         C843   1.494       .  S
C18         C634   1.502       .  S
C19         C662   1.493       .  S
C20         C690   1.481       .  S
Zn21         O25   1.960       .  S
Zn21         O26   2.016       .  S
Zn21         O30   2.026       .  S
Zn21         O37   2.045       .  S
Zn22         O25   1.956       .  S
Zn22         O27   2.000       .  S
Zn22         O29   1.998       .  S
Zn22         O33   2.035       .  S
Zn23         O25   1.961       .  S
Zn23         O28   2.018       .  S
Zn23         O31   1.999       .  S
Zn23         O34   2.022       .  S
Zn24         O25   1.926       .  S
Zn24         O32   1.970       .  S
Zn24         O35   1.982       .  S
Zn24         O36   1.973       .  S
O26          C38   1.275       .  A
O27          C39   1.273       .  A
O28          C40   1.273       .  A
O29          C38   1.272       .  A
O30          C40   1.275       .  A
O31          C39   1.271       .  A
O32          C41   1.267       .  A
O33          C42   1.273       .  A
O34          C41   1.275       .  A
O35          C42   1.269       .  A
O36          C43   1.269       .  A
O37          C43   1.277       .  A
C38         C606   1.478       .  S
C39         C563   1.477       .  S
C40         C578   1.487       .  S
C41         C731   1.485       .  S
C42         C774   1.490       .  S
C43         C746   1.486       .  S
C44          H45   1.112       .  S
C44          C50   1.523   1_565  S
C44         C934   1.523       .  S
C44        C2703   1.522   1_455  S
C46          H47   1.109       .  S
C46          C53   1.550   1_665  S
C46         C937   1.546   1_655  S
C46        C2706   1.552       .  S
C48        C2699   1.522       .  S
C48          C51   1.373       .  D
C48         C550   1.479       .  S
C49         C929   1.523       .  S
C49          C52   1.374       .  D
C49         C619   1.474       .  S
C50          C53   1.375       .  D
C50         C591   1.485       .  S
C51        C2701   1.552       .  S
C51         C535   1.490       .  S
C52         C931   1.546   1_455  S
C52         C479   1.493       .  S
C53         C494   1.485       .  S
C54          H55   1.110       .  S
C54          C60   1.553       .  S
C54          C59   1.557       .  S
C54          C58   1.553       .  S
C56          H57   1.111       .  S
C56          C62   1.523       .  S
C56          C61   1.525       .  S
C56          C63   1.527       .  S
C58          C61   1.375       .  D
C58         C466   1.490       .  S
C59          C62   1.378       .  D
C59         C507   1.501       .  S
C60          C63   1.376       .  D
C60         C522   1.501       .  S
C61         C451   1.487       .  S
C62         C423   1.487       .  S
C63         C395   1.485       .  S
C64          H65   1.112       .  S
C64          C70   1.521       .  S
C64          C69   1.522       .  S
C64          C68   1.525       .  S
C66          H67   1.111       .  S
C66          C72   1.558       .  S
C66          C71   1.549       .  S
C66          C73   1.549       .  S
C68          C71   1.378       .  D
C68         C242   1.486       .  S
C69          C72   1.380       .  D
C69         C270   1.486       .  S
C70          C73   1.368       .  D
C70         C214   1.473       .  S
C71         C339   1.492       .  S
C72         C298   1.498       .  S
C73         C354   1.490       .  S
C74          H75   1.110       .  S
C74          C79   1.558       .  S
C74        C2735   1.556       .  S
C74         C963   1.547       .  S
C76        H1847   1.112       .  S
C76          C82   1.528       .  S
C76         C966   1.526       .  S
C76        C2738   1.518       .  S
H77        C1846   1.112       .  S
C78         C959   1.547   1_545  S
C78          C81   1.369       .  D
C78         C311   1.490       .  S
C79          C82   1.385       .  D
C79         C367   1.502       .  S
C80        C2729   1.556   1_445  S
C80          C83   1.369       .  D
C80         C326   1.487       .  S
C81         C961   1.526       .  S
C81         C199   1.476       .  S
C82         C158   1.493       .  S
C83        C2731   1.518       .  S
C83         C130   1.477       .  S
Zn84         O88   1.964       .  S
Zn84         O89   2.038       .  S
Zn84         O93   2.021       .  S
Zn84        O100   2.022       .  S
Zn85         O88   1.931       .  S
Zn85         O90   1.979       .  S
Zn85         O92   1.985       .  S
Zn85         O96   1.995       .  S
Zn86         O88   1.965       .  S
Zn86         O91   2.017       .  S
Zn86         O94   2.046       .  S
Zn86         O97   2.014       .  S
Zn87         O88   1.964       .  S
Zn87         O95   2.002       .  S
Zn87         O98   2.033       .  S
Zn87         O99   2.008       .  S
O89         C101   1.275       .  A
O90         C102   1.270       .  A
O91         C103   1.273       .  A
O92         C101   1.271       .  A
O93         C103   1.274       .  A
O94         C102   1.276       .  A
O95         C104   1.272       .  A
O96         C105   1.271       .  A
O97         C104   1.274       .  A
O98         C105   1.273       .  A
O99         C106   1.273       .  A
O100        C106   1.275       .  A
C101        C171   1.489       .  S
C102        C186   1.483       .  S
C103        C675   1.479       .  S
C104        C703   1.474       .  S
C105        C143   1.493       .  S
C106        C647   1.479       .  S
Zn107      O2766   1.962   1_445  S
Zn107       O112   2.026   1_554  S
Zn107       O123   2.031       .  S
Zn107      O1001   2.026   1_544  S
Zn108       O996   1.962   1_545  S
Zn108       O119   2.035       .  S
Zn108       O998   2.017   1_544  S
Zn108      O1885   2.017   1_554  S
Zn109       O111   1.954       .  S
Zn109       O117   2.009   1_554  S
Zn109       O120   2.025       .  S
Zn109      O1884   2.006   1_554  S
Zn110       O996   1.938   1_545  S
Zn110       O121   1.992       .  S
Zn110      O1003   1.999   1_545  S
Zn110      O1892   1.993       .  S
O111      Zn2762   1.962       .  S
O111       Zn993   1.962       .  S
O111       Zn995   1.938       .  S
O112        C124   1.276       .  A
O113       Zn993   2.016   1_556  S
O113        C125   1.275       .  A
O114      Zn1879   2.006   1_456  S
O114        C126   1.271       .  A
O115      Zn1878   2.017   1_456  S
O115        C124   1.274       .  A
O116       Zn992   2.026   1_556  S
O116        C126   1.276       .  A
O117        C125   1.272       .  A
O118       Zn995   2.000       .  S
O118        C127   1.272       .  A
O119        C128   1.275       .  A
O120        C127   1.274       .  A
O121        C128   1.270       .  A
O122      Zn1880   1.993       .  S
O122        C129   1.272       .  A
O123        C129   1.275       .  A
C124        C410   1.490       .  S
C125        C382   1.491       .  S
C126        C438   1.488       .  S
C127        C227   1.488       .  S
C128        C283   1.476       .  S
C129        C255   1.477       .  S
C130        C131   1.407       .  A
C130        C135   1.401       .  A
C131        C132   1.402       .  A
C131        N136   1.431       .  S
C132        C133   1.402       .  A
C132        H137   1.084       .  S
C133        C138   1.476       .  S
C133        C134   1.407       .  A
C134        C135   1.404       .  A
C134        N139   1.437   1_545  S
C135        H140   1.084   1_545  S
N136        H156   1.046       .  S
N136        H157   1.045       .  S
C138        C141   1.401       .  A
C138        C145   1.403       .  A
N139        H154   1.046       .  S
N139        H155   1.046   1_565  S
C141        C142   1.408       .  A
C141        H146   1.084       .  S
C142        C143   1.419       .  A
C142        N147   1.438       .  S
C143        C144   1.411       .  A
C144        C145   1.402       .  A
C144        H148   1.083       .  S
C145        N149   1.438       .  S
N147        H150   1.046       .  S
N147        H151   1.045       .  S
N149        H152   1.045       .  S
N149        H153   1.046       .  S
C158        C159   1.420       .  A
C158        C163   1.404       .  A
C159        C160   1.404       .  A
C159        N164   1.437       .  S
C160        C161   1.404       .  A
C160        H165   1.084       .  S
C161        C166   1.483       .  S
C161        C162   1.406       .  A
C162        C163   1.399       .  A
C162        N167   1.438       .  S
C163        H168   1.079       .  S
N164        H184   1.041       .  S
N164        H185   1.045       .  S
C166        C169   1.403       .  A
C166        C173   1.406       .  A
N167        H182   1.046       .  S
N167        H183   1.046       .  S
C169        C170   1.407       .  A
C169        H174   1.084       .  S
C170        C171   1.416       .  A
C170        N175   1.438       .  S
C171        C172   1.409       .  A
C172        C173   1.401       .  A
C172        H176   1.083       .  S
C173        N177   1.436       .  S
N175        H178   1.046       .  S
N175        H179   1.046       .  S
N177        H180   1.046       .  S
N177        H181   1.045       .  S
C186        C187   1.414       .  A
C186        C191   1.407       .  A
C187        C188   1.409       .  A
C187        N192   1.437       .  S
C188        C189   1.403       .  A
C188        H193   1.084       .  S
C189        C194   1.479       .  S
C189        C190   1.406       .  A
C190        C191   1.400       .  A
C190        N195   1.439       .  S
C191        H196   1.084       .  S
N192        H212   1.045       .  S
N192        H213   1.046       .  S
C194        C197   1.401       .  A
C194        C201   1.409       .  A
N195        H210   1.045       .  S
N195        H211   1.046       .  S
C197        C198   1.397       .  A
C197        H202   1.084       .  S
C198        C199   1.416       .  A
C198       N1088   1.438   1_545  S
C199        C200   1.401       .  A
C200        C201   1.404       .  A
C200       H1974   1.082       .  S
C201        N205   1.437       .  S
N203       C1083   1.438       .  S
N203        H206   1.046       .  S
N203        H207   1.042       .  S
H204       C1970   1.082   1_455  S
N205        H209   1.046       .  S
N205       H1978   1.046       .  S
H208       N1975   1.046   1_455  S
C214        C215   1.407       .  A
C214        C219   1.401       .  A
C215        C216   1.402       .  A
C215        N220   1.436       .  S
C216        C217   1.400       .  A
C216        H221   1.084       .  S
C217        C222   1.472       .  S
C217        C218   1.408       .  A
C218        C219   1.403       .  A
C218        N223   1.437       .  S
C219        H224   1.083       .  S
N220        H240   1.045       .  S
N220        H241   1.045       .  S
C222        C225   1.399       .  A
C222        C229   1.404       .  A
N223        H238   1.046       .  S
N223        H239   1.045       .  S
C225        C226   1.406       .  A
C225        H230   1.084       .  S
C226        C227   1.418       .  A
C226        N231   1.438       .  S
C227        C228   1.410       .  A
C228        C229   1.403       .  A
C228        H232   1.083       .  S
C229        N233   1.438       .  S
N231        H234   1.046       .  S
N231        H235   1.045       .  S
N233        H236   1.046       .  S
N233        H237   1.046       .  S
C242        C243   1.420       .  A
C242        C247   1.406       .  A
C243        C244   1.399       .  A
C243        N248   1.436       .  S
C244        C245   1.399       .  A
C244        H249   1.084       .  S
C245        C250   1.474       .  S
C245        C246   1.405       .  A
C246        C247   1.403       .  A
C246        N251   1.437       .  S
C247        H252   1.084       .  S
N248        H268   1.038       .  S
N248        H269   1.046       .  S
C250        C253   1.398       .  A
C250        C257   1.408       .  A
N251        H266   1.046       .  S
N251        H267   1.045       .  S
C253        C254   1.402       .  A
C253        H258   1.084       .  S
C254        C255   1.414       .  A
C254        N259   1.438       .  S
C255        C256   1.404       .  A
C256        C257   1.406       .  A
C256        H260   1.084       .  S
C257        N261   1.437       .  S
N259        H262   1.046       .  S
N259        H263   1.046       .  S
N261        H264   1.046       .  S
N261        H265   1.046       .  S
C270        C271   1.419       .  A
C270        C275   1.406       .  A
C271        C272   1.400       .  A
C271        N276   1.436       .  S
C272        C273   1.400       .  A
C272        H277   1.084       .  S
C273        C278   1.474       .  S
C273        C274   1.405       .  A
C274        C275   1.402       .  A
C274        N279   1.438       .  S
C275        H280   1.084       .  S
N276        H296   1.039       .  S
N276        H297   1.046       .  S
C278        C281   1.398       .  A
C278        C285   1.409       .  A
N279        H294   1.046       .  S
N279        H295   1.045       .  S
C281        C282   1.403       .  A
C281        H286   1.084       .  S
C282        C283   1.414       .  A
C282       N1172   1.438   1_545  S
C283        C284   1.403       .  A
C284        C285   1.406       .  A
C284        H288   1.084       .  S
C285        N289   1.438       .  S
N287       C1167   1.438       .  S
N287        H290   1.046       .  S
N287        H291   1.046       .  S
N289        H292   1.046       .  S
N289        H293   1.045       .  S
C298        C299   1.421       .  A
C298        C303   1.405       .  A
C299        C300   1.398       .  A
C299        N304   1.436       .  S
C300        C301   1.401       .  A
C300        H305   1.084       .  S
C301        C306   1.496       .  S
C301        C302   1.415       .  A
C302        C303   1.412       .  A
C302        N307   1.437       .  S
C303        H308   1.082       .  S
N304        H324   1.039       .  S
N304        H325   1.045       .  S
C306        C309   1.406       .  A
C306        C313   1.415       .  A
N307        H322   1.046       .  S
N307        H323   1.046       .  S
C309        C310   1.408       .  A
C309        H314   1.083       .  S
C310        C311   1.408       .  A
C310       N2085   1.434       .  S
C311        C312   1.401       .  A
C312        C313   1.407       .  A
C312       H1201   1.081   1_545  S
C313        N317   1.438       .  S
N315       C2080   1.434   1_455  S
N315        H318   1.046       .  S
N315        H319   1.045       .  S
H316       C1197   1.081       .  S
N317        H321   1.046       .  S
N317       H1205   1.046   1_545  S
H320       N1202   1.046       .  S
C326        C327   1.409       .  A
C326        C331   1.400       .  A
C327        C328   1.408       .  A
C327        N332   1.435   1_545  S
C328        C329   1.407       .  A
C328        H333   1.083       .  S
C329        C334   1.497       .  S
C329        C330   1.415       .  A
C330        C331   1.405       .  A
C330        N335   1.438       .  S
C331        H336   1.079       .  S
N332       H1237   1.043       .  S
N332       H1238   1.045       .  S
C334        C337   1.404       .  A
C334        C341   1.416       .  A
N335        H350   1.046       .  S
N335        H351   1.046       .  S
C337        C338   1.399       .  A
C337        H342   1.083       .  S
C338        C339   1.418       .  A
C338        N343   1.439       .  S
C339        C340   1.403       .  A
C340        C341   1.410       .  A
C340        H344   1.084       .  S
C341        N345   1.438       .  S
N343        H346   1.046       .  S
N343        H347   1.043       .  S
N345        H348   1.046       .  S
N345        H349   1.046       .  S
H352       N1217   1.043       .  S
H353       N1217   1.045       .  S
C354        C355   1.418       .  A
C354        C359   1.403       .  A
C355        C356   1.405       .  A
C355        N360   1.437       .  S
C356        C357   1.405       .  A
C356        H361   1.084       .  S
C357        C362   1.495       .  S
C357        C358   1.411       .  A
C358        C359   1.406       .  A
C358        N363   1.432       .  S
C359        H364   1.083       .  S
N360        H380   1.040       .  S
N360        H381   1.046       .  S
C362        C365   1.407       .  A
C362        C369   1.408       .  A
N363        H378   1.046       .  S
N363        H379   1.046       .  S
C365        C366   1.410       .  A
C365        H370   1.084       .  S
C366        C367   1.411       .  A
C366        N371   1.430       .  S
C367        C368   1.407       .  A
C368        C369   1.403       .  A
C368        H372   1.083       .  S
C369        N373   1.431       .  S
N371        H374   1.045       .  S
N371        H375   1.045       .  S
N373        H376   1.043       .  S
N373        H377   1.045       .  S
C382        C383   1.420       .  A
C382        C387   1.409       .  A
C383        C384   1.405       .  A
C383        N388   1.438       .  S
C384        C385   1.400       .  A
C384        H389   1.084       .  S
C385        C390   1.481       .  S
C385        C386   1.407       .  A
C386        C387   1.403       .  A
C386        N391   1.438       .  S
C387        H392   1.083       .  S
N388        H408   1.046       .  S
N388        H409   1.046       .  S
C390        C393   1.401       .  A
C390        C397   1.410       .  A
N391        H406   1.046       .  S
N391        H407   1.046       .  S
C393        C394   1.401       .  A
C393        H398   1.084       .  S
C394        C395   1.411       .  A
C394        N399   1.437       .  S
C395        C396   1.404       .  A
C396        C397   1.403       .  A
C396        H400   1.083       .  S
C397        N401   1.438       .  S
N399        H402   1.045       .  S
N399        H403   1.044       .  S
N401        H404   1.046       .  S
N401        H405   1.046       .  S
C410        C411   1.418       .  A
C410        C415   1.407       .  A
C411        C412   1.407       .  A
C411        N416   1.438       .  S
C412        C413   1.401       .  A
C412        H417   1.084       .  S
C413        C418   1.484       .  S
C413        C414   1.408       .  A
C414        C415   1.405       .  A
C414        N419   1.438       .  S
C415        H420   1.083       .  S
N416       H2206   1.046       .  S
N416       H2207   1.046       .  S
C418        C421   1.402       .  A
C418        C425   1.411       .  A
N419        H434   1.046       .  S
N419        H435   1.046       .  S
C421        C422   1.404       .  A
C421        H426   1.084       .  S
C422        C423   1.410       .  A
C422        N427   1.437       .  S
C423        C424   1.404       .  A
C424        C425   1.406       .  A
C424        H428   1.084       .  S
C425        N429   1.437       .  S
N427        H430   1.045       .  S
N427        H431   1.045       .  S
N429        H432   1.046       .  S
N429        H433   1.046       .  S
H436       N2186   1.046       .  S
H437       N2186   1.046       .  S
C438        C439   1.419       .  A
C438        C443   1.406       .  A
C439        C440   1.406       .  A
C439        N444   1.438   1_455  S
C440        C441   1.400       .  A
C440        H445   1.084       .  S
C441        C446   1.482       .  S
C441        C442   1.410       .  A
C442        C443   1.404       .  A
C442        N447   1.438       .  S
C443        H448   1.083       .  S
N444       H2234   1.045       .  S
N444       H2235   1.046       .  S
C446        C449   1.400       .  A
C446        C453   1.409       .  A
N447        H463   1.046       .  S
N447       H1347   1.046       .  S
C449        C450   1.398       .  A
C449        H454   1.084       .  S
C450        C451   1.419       .  A
C450        N455   1.435       .  S
C451        C452   1.405       .  A
C452        C453   1.404       .  A
C452        H456   1.084       .  S
C453        N457   1.437       .  S
N455        H458   1.045       .  S
N455        H459   1.037       .  S
N457        H460   1.046       .  S
N457        H461   1.046       .  S
H462       N1332   1.046       .  S
H464       N2214   1.045       .  S
H465       N2214   1.046       .  S
C466        C467   1.420       .  A
C466        C471   1.404       .  A
C467        C468   1.401       .  A
C467        N472   1.439       .  S
C468        C469   1.401       .  A
C468        H473   1.084       .  S
C469        C474   1.490       .  S
C469        C470   1.412       .  A
C470        C471   1.410       .  A
C470        N475   1.437       .  S
C471        H476   1.084       .  S
N472        H492   1.043       .  S
N472        H493   1.045       .  S
C474        C477   1.406       .  A
C474        C481   1.410       .  A
N475        H490   1.046       .  S
N475        H491   1.045       .  S
C477        C478   1.411       .  A
C477        H482   1.084       .  S
C478        C479   1.411       .  A
C478       N1368   1.436       .  S
C479        C480   1.405       .  A
C480        C481   1.404       .  A
C480        H484   1.084   1_455  S
C481        N485   1.438       .  S
N483       C1363   1.436   1_545  S
N483        H486   1.045       .  S
N483        H487   1.044       .  S
N485        H488   1.046   1_455  S
N485        H489   1.046       .  S
C494        C495   1.413       .  A
C494        C499   1.400       .  A
C495        C496   1.407       .  A
C495        N500   1.439       .  S
C496        C497   1.403       .  A
C496        H501   1.084       .  S
C497        C502   1.489       .  S
C497        C498   1.412       .  A
C498        C499   1.408       .  A
C498        N503   1.437       .  S
C499       H2274   1.084   1_455  S
N500        H520   1.041       .  S
N500        H521   1.046       .  S
C502        C505   1.405       .  A
C502        C509   1.408       .  A
N503        H519   1.046       .  S
N503       H2288   1.046   1_455  S
H504       C2269   1.084       .  S
C505        C506   1.410       .  A
C505        H510   1.084       .  S
C506        C507   1.413       .  A
C506        N511   1.436       .  S
C507        C508   1.409       .  A
C508        C509   1.406       .  A
C508        H512   1.083       .  S
C509        N513   1.438       .  S
N511        H514   1.046       .  S
N511        H515   1.043       .  S
N513        H516   1.046       .  S
N513        H517   1.046       .  S
H518       N2273   1.046       .  S
C522        C523   1.422       .  A
C522        C527   1.404       .  A
C523        C524   1.401       .  A
C523        N528   1.435       .  S
C524        C525   1.401       .  A
C524        H529   1.084       .  S
C525        C530   1.499       .  S
C525        C526   1.416       .  A
C526        C527   1.414       .  A
C526        N531   1.437       .  S
C527        H532   1.084       .  S
N528        H548   1.039       .  S
N528        H549   1.045       .  S
C530        C533   1.407       .  A
C530        C537   1.415       .  A
N531        H546   1.045       .  S
N531        H547   1.046       .  S
C533        C534   1.410       .  A
C533        H538   1.083       .  S
C534        C535   1.409       .  A
C534        N539   1.437       .  S
C535        C536   1.404       .  A
C536        C537   1.408       .  A
C536        H540   1.084       .  S
C537        N541   1.438       .  S
N539        H542   1.045       .  S
N539        H543   1.045       .  S
N541        H544   1.046       .  S
N541        H545   1.045       .  S
C550        C551   1.406       .  A
C550        C555   1.404       .  A
C551        C552   1.396       .  A
C551       N1441   1.431       .  S
C552        C553   1.399       .  A
C552        H557   1.084       .  S
C553        C558   1.473       .  S
C553        C554   1.409       .  A
C554        C555   1.405       .  A
C554        N559   1.437       .  S
C555        H560   1.083       .  S
N556       C1436   1.431   1_545  S
N556        H576   1.045       .  S
N556        H577   1.046       .  S
C558        C561   1.401       .  A
C558        C565   1.406       .  A
N559        H574   1.046       .  S
N559        H575   1.046       .  S
C561        C562   1.406       .  A
C561        H566   1.084       .  S
C562        C563   1.416       .  A
C562        N567   1.438       .  S
C563        C564   1.404       .  A
C564        C565   1.398       .  A
C564        H568   1.083       .  S
C565        N569   1.438       .  S
N567        H570   1.046       .  S
N567        H571   1.046       .  S
N569        H572   1.046       .  S
N569        H573   1.046       .  S
C578        C579   1.417       .  A
C578        C583   1.405       .  A
C579        C580   1.408       .  A
C579        N584   1.438       .  S
C580        C581   1.402       .  A
C580        H585   1.084       .  S
C581        C586   1.487       .  S
C581        C582   1.410       .  A
C582        C583   1.405       .  A
C582        N587   1.438       .  S
C583        H588   1.083       .  S
N584        H604   1.046       .  S
N584        H605   1.046       .  S
C586        C589   1.404       .  A
C586        C593   1.410       .  A
N587        H602   1.046       .  S
N587        H603   1.046       .  S
C589        C590   1.401       .  A
C589        H594   1.084       .  S
C590        C591   1.417       .  A
C590        N595   1.438   1_455  S
C591        C592   1.404       .  A
C592        C593   1.405       .  A
C592        H596   1.084       .  S
C593        N597   1.438       .  S
N595        H598   1.045   1_655  S
N595       H2369   1.042       .  S
N597        H600   1.046       .  S
N597        H601   1.046       .  S
H599       N2365   1.042       .  S
C606        C607   1.414       .  A
C606        C611   1.405       .  A
C607        C608   1.402       .  A
C607        N612   1.438       .  S
C608        C609   1.400       .  A
C608        H613   1.084       .  S
C609        C614   1.476       .  S
C609        C610   1.408       .  A
C610        C611   1.403       .  A
C610        N615   1.438       .  S
C611        H616   1.084       .  S
N612        H632   1.046       .  S
N612        H633   1.046       .  S
C614        C617   1.402       .  A
C614        C621   1.411       .  A
N615        H630   1.046       .  S
N615        H631   1.046       .  S
C617        C618   1.398       .  A
C617        H622   1.084       .  S
C618        C619   1.404       .  A
C618       N2393   1.432   1_455  S
C619        C620   1.401       .  A
C620        C621   1.403       .  A
C620       H1509   1.084       .  S
C621        N625   1.437       .  S
N623       C2388   1.432       .  S
N623        H626   1.046       .  S
N623        H627   1.045       .  S
H624       C1505   1.084       .  S
N625        H629   1.045       .  S
N625       H1513   1.046       .  S
H628       N1510   1.046       .  S
C634        C635   1.414       .  A
C634        C639   1.410       .  A
C635        C636   1.399       .  A
C635        N640   1.427       .  S
C636        C637   1.394       .  A
C636        H641   1.084       .  S
C637        C642   1.475       .  S
C637        C638   1.407       .  A
C638        C639   1.409       .  A
C638        N643   1.437       .  S
C639        H644   1.083       .  S
N640        H660   1.045       .  S
N640        H661   1.046       .  S
C642        C645   1.400       .  A
C642        C649   1.408       .  A
N643        H658   1.046       .  S
N643        H659   1.045       .  S
C645        C646   1.404       .  A
C645        H650   1.084       .  S
C646        C647   1.414       .  A
C646        N651   1.438       .  S
C647        C648   1.405       .  A
C648        C649   1.406       .  A
C648        H652   1.084       .  S
C649        N653   1.438       .  S
N651        H654   1.046       .  S
N651        H655   1.046       .  S
N653        H656   1.046       .  S
N653        H657   1.045       .  S
C662        C663   1.422       .  A
C662        C667   1.405       .  A
C663        C664   1.404       .  A
C663        N668   1.436       .  S
C664        C665   1.401       .  A
C664        H669   1.084       .  S
C665        C670   1.479       .  S
C665        C666   1.406       .  A
C666        C667   1.402       .  A
C666        N671   1.438       .  S
C667        H672   1.084       .  S
N668        H688   1.041       .  S
N668        H689   1.045       .  S
C670        C673   1.402       .  A
C670       C2447   1.408   1_455  A
N671        H686   1.046       .  S
N671        H687   1.045       .  S
C673       C2444   1.407   1_455  A
C673        H678   1.084       .  S
C674        C675   1.412       .  A
C674       C2443   1.407       .  A
C674        N679   1.438       .  S
C675        C676   1.405       .  A
C676        C677   1.406       .  A
C676        H680   1.084       .  S
C677       C2440   1.408       .  A
C677        N681   1.438       .  S
N679        H682   1.046       .  S
N679        H683   1.046       .  S
N681        H684   1.046       .  S
N681        H685   1.045       .  S
C690        C691   1.406       .  A
C690        C695   1.397       .  A
C691        C692   1.408       .  A
C691        N696   1.436       .  S
C692        C693   1.406       .  A
C692        H697   1.083       .  S
C693        C698   1.484       .  S
C693        C694   1.411       .  A
C694        C695   1.398       .  A
C694        N699   1.439       .  S
C695        H700   1.079       .  S
N696        H716   1.045       .  S
N696        H717   1.045       .  S
C698        C705   1.412       .  A
C698       C1586   1.404       .  A
N699        H714   1.046       .  S
N699        H715   1.046       .  S
C701        C702   1.402       .  A
C701       C1583   1.404       .  A
C701        H706   1.084       .  S
C702        C703   1.412       .  A
C702        N707   1.439       .  S
C703        C704   1.403       .  A
C704       C1590   1.405   1_545  A
C704        H708   1.084       .  S
C705       C1589   1.405       .  A
C705        N709   1.438       .  S
N707        H710   1.046       .  S
N707        H711   1.046       .  S
N709        H712   1.046       .  S
N709        H713   1.046       .  S
C718        C719   1.410       .  A
C718        C723   1.402       .  A
C719        C720   1.398       .  A
C719        N724   1.435       .  S
C720        C721   1.398       .  A
C720        H725   1.084       .  S
C721        C726   1.476       .  S
C721        C722   1.411       .  A
C722        C723   1.405       .  A
C722        N727   1.438       .  S
C723        H728   1.084       .  S
N724        H744   1.044       .  S
N724        H745   1.046       .  S
C726        C729   1.397       .  A
C726        C733   1.409       .  A
N727        H742   1.046       .  S
N727        H743   1.046       .  S
C729        C730   1.402       .  A
C729        H734   1.084       .  S
C730        C731   1.422       .  A
C730        N735   1.439       .  S
C731        C732   1.406       .  A
C732        C733   1.402       .  A
C732        H736   1.083       .  S
C733        N737   1.438       .  S
N735        H738   1.046       .  S
N735        H739   1.046       .  S
N737        H740   1.046       .  S
N737        H741   1.046       .  S
C746        C747   1.414       .  A
C746        C751   1.411       .  A
C747       C2518   1.406   1_455  A
C747        N752   1.437       .  S
C748        C749   1.402       .  A
C748       C2517   1.406       .  A
C748        H753   1.084       .  S
C749        C754   1.475       .  S
C749       C2520   1.405       .  A
C750        C751   1.401       .  A
C750       C2519   1.405   1_455  A
C750        N755   1.439       .  S
C751        H756   1.083       .  S
N752        H772   1.046       .  S
N752        H773   1.046   1_455  S
C754        C757   1.401       .  A
C754        C761   1.406       .  A
N755        H770   1.046       .  S
N755        H771   1.046       .  S
C757        C758   1.398       .  A
C757        H762   1.084       .  S
C758        C759   1.419       .  A
C758        N763   1.438       .  S
C759        C760   1.402       .  A
C760        C761   1.399       .  A
C760        H764   1.082       .  S
C761        N765   1.438       .  S
N763        H766   1.045       .  S
N763        H767   1.042       .  S
N765        H768   1.046       .  S
N765        H769   1.046       .  S
C774        C775   1.418       .  A
C774        C779   1.409       .  A
C775        C776   1.410       .  A
C775        N780   1.438       .  S
C776       C1662   1.402       .  A
C776       H1666   1.084       .  S
C777        C782   1.476       .  S
C777       C1661   1.402       .  A
C777       C1663   1.403   1_545  A
C778        C779   1.400       .  A
C778       C1662   1.403       .  A
C778        N783   1.439       .  S
C779        H784   1.083       .  S
N780        H800   1.046       .  S
N780        H801   1.046       .  S
H781       C1661   1.084       .  S
C782        C785   1.400       .  A
C782        C789   1.407       .  A
N783        H798   1.045       .  S
N783       H1684   1.046       .  S
C785        C786   1.403       .  A
C785        H790   1.084       .  S
C786        C787   1.411       .  A
C786        N791   1.435       .  S
C787        C788   1.404       .  A
C788        C789   1.406       .  A
C788        H792   1.084       .  S
C789        N793   1.437       .  S
N791        H794   1.045       .  S
N791        H795   1.042       .  S
N793        H796   1.046       .  S
N793        H797   1.046       .  S
H799       N1668   1.046       .  S
C802        C803   1.409       .  A
C802        C807   1.408       .  A
C803        C804   1.408       .  A
C803        N808   1.431       .  S
C804        C805   1.404       .  A
C804        H809   1.084       .  S
C805        C810   1.486       .  S
C805        C806   1.408       .  A
C806        C807   1.407       .  A
C806        N811   1.438       .  S
C807        H812   1.083       .  S
N808        H828   1.045       .  S
N808        H829   1.045       .  S
C810        C813   1.403       .  A
C810        C817   1.406       .  A
N811        H826   1.046       .  S
N811        H827   1.044       .  S
C813        C814   1.413       .  A
C813        H818   1.084       .  S
C814        C815   1.414       .  A
C814        N819   1.435       .  S
C815        C816   1.411       .  A
C816        C817   1.406       .  A
C816        H820   1.082       .  S
C817        N821   1.438       .  S
N819        H822   1.045       .  S
N819        H823   1.041       .  S
N821        H824   1.046       .  S
N821        H825   1.044       .  S
C830        C831   1.417       .  A
C830        C835   1.397       .  A
C831        C832   1.407       .  A
C831        N836   1.438       .  S
C832        C833   1.412       .  A
C832        H837   1.081       .  S
C833       C1723   1.517   1_545  S
C833        C834   1.421       .  A
C834        C835   1.405       .  A
C834        N839   1.432       .  S
C835        H840   1.082       .  S
N836        H856   1.043       .  S
N836        H857   1.045       .  S
C838       C1718   1.518       .  S
C838        C841   1.410       .  A
C838        C845   1.426       .  A
N839        H854   1.046       .  S
N839       H1740   1.046       .  S
C841        C842   1.403       .  A
C841        H846   1.079       .  S
C842        C843   1.406       .  A
C842        N847   1.436       .  S
C843        C844   1.399       .  A
C844        C845   1.415       .  A
C844        H848   1.083       .  S
C845        N849   1.437       .  S
N847        H850   1.046       .  S
N847        H851   1.046       .  S
N849        H852   1.046       .  S
N849        H853   1.046       .  S
H855       N1724   1.046       .  S
C858        C859   1.413       .  A
C858        C863   1.404       .  A
C859        C860   1.409       .  A
C859        N864   1.438       .  S
C860        C861   1.402       .  A
C860        H865   1.084       .  S
C861       C2636   1.493   1_455  S
C861        C862   1.413       .  A
C862        C863   1.413       .  A
C862        N867   1.437       .  S
C863        H868   1.083       .  S
N864        H884   1.045       .  S
N864        H885   1.045       .  S
C866       C2631   1.493       .  S
C866        C869   1.400       .  A
C866        C873   1.414       .  A
N867        H882   1.046       .  S
N867        H883   1.046       .  S
C869        C870   1.408       .  A
C869        H874   1.084       .  S
C870        C871   1.417       .  A
C870        N875   1.436       .  S
C871        C872   1.403       .  A
C872        C873   1.413       .  A
C872        H876   1.083       .  S
C873        N877   1.437       .  S
N875        H878   1.045       .  S
N875        H879   1.044       .  S
N877        H880   1.045       .  S
N877        H881   1.044       .  S
C886        H887   1.112       .  S
C886        C892   1.518       .  S
C886        C891   1.520       .  S
C886        C890   1.523       .  S
C888        H889   1.109       .  S
C888        C894   1.557       .  S
C888        C893   1.555       .  S
C888        C895   1.565       .  S
C890        C893   1.374       .  D
C890       C1644   1.479       .  S
C891        C894   1.373       .  D
C891       C1672   1.483       .  S
C892        C895   1.380       .  D
C892       C1603   1.482       .  S
C893       C1756   1.502       .  S
C894       C1715   1.491       .  S
C895       C1700   1.508       .  S
C896        H897   1.110       .  S
C896        C902   1.547       .  S
C896        C901   1.554       .  S
C896        C900   1.552       .  S
C898        H899   1.109       .  S
C898        C904   1.528       .  S
C898        C903   1.536       .  S
C898        C905   1.527       .  S
C900        C903   1.383       .  D
C900       C1687   1.497       .  S
C901        C904   1.377       .  D
C901       C1743   1.495       .  S
C902        C905   1.373       .  D
C902       C1728   1.494       .  S
C903       C1519   1.501       .  S
C904       C1547   1.493       .  S
C905       C1575   1.481       .  S
Zn906       O910   1.961       .  S
Zn906       O911   2.017       .  S
Zn906       O915   2.027       .  S
Zn906       O922   2.045       .  S
Zn907       O910   1.956       .  S
Zn907       O912   2.001       .  S
Zn907       O914   1.999       .  S
Zn907       O918   2.036       .  S
Zn908       O910   1.961       .  S
Zn908       O913   2.018       .  S
Zn908       O916   2.000       .  S
Zn908       O919   2.022       .  S
Zn909       O910   1.926       .  S
Zn909       O917   1.970       .  S
Zn909       O920   1.981       .  S
Zn909       O921   1.973       .  S
O911        C923   1.275       .  A
O912        C924   1.273       .  A
O913        C925   1.273       .  A
O914        C923   1.272       .  A
O915        C925   1.275       .  A
O916        C924   1.271       .  A
O917        C926   1.267       .  A
O918        C927   1.273       .  A
O919        C926   1.275       .  A
O920        C927   1.269       .  A
O921        C928   1.269       .  A
O922        C928   1.277       .  A
C923       C1491   1.478       .  S
C924       C1448   1.477       .  S
C925       C1463   1.487       .  S
C926       C1616   1.485       .  S
C927       C1659   1.489       .  S
C928       C1631   1.486       .  S
C929        H930   1.112       .  S
C929        C935   1.523       .  S
C929       C1818   1.522   1_455  S
C931        H932   1.109       .  S
C931       C1821   1.552       .  S
C931        C938   1.550   1_655  S
C933       C1814   1.522       .  S
C933        C936   1.373       .  D
C933       C1435   1.479       .  S
C934        C937   1.373       .  D
C934       C1504   1.474       .  S
C935        C938   1.375       .  D
C935       C1476   1.486       .  S
C936       C1816   1.552       .  S
C936       C1420   1.490       .  S
C937       C1364   1.493       .  S
C938       C1379   1.484       .  S
C939        H940   1.110       .  S
C939        C945   1.553       .  S
C939        C944   1.557       .  S
C939        C943   1.553       .  S
C941        H942   1.111       .  S
C941        C947   1.523       .  S
C941        C946   1.525       .  S
C941        C948   1.527       .  S
C943        C946   1.375       .  D
C943       C1351   1.490       .  S
C944        C947   1.378       .  D
C944       C1392   1.501       .  S
C945        C948   1.376       .  D
C945       C1407   1.501       .  S
C946       C1336   1.487       .  S
C947       C1308   1.487       .  S
C948       C1280   1.485       .  S
C949        H950   1.112       .  S
C949        C955   1.521       .  S
C949        C954   1.522       .  S
C949        C953   1.525       .  S
C951        H952   1.111       .  S
C951        C957   1.557       .  S
C951        C956   1.549       .  S
C951        C958   1.548       .  S
C953        C956   1.378       .  D
C953       C1127   1.486       .  S
C954        C957   1.380       .  D
C954       C1155   1.486       .  S
C955        C958   1.368       .  D
C955       C1099   1.474       .  S
C956       C1224   1.492       .  S
C957       C1183   1.498       .  S
C958       C1239   1.490       .  S
C959        H960   1.110       .  S
C959       C1850   1.556   1_565  S
C959        C964   1.558       .  S
C961       H2732   1.112       .  S
C961        C967   1.528   1_545  S
C961       C1853   1.518       .  S
H962       C2731   1.112       .  S
C963        C966   1.369       .  D
C963       C1196   1.490       .  S
C964        C967   1.385       .  D
C964       C1252   1.502       .  S
C965       C1844   1.556   1_455  S
C965        C968   1.369       .  D
C965       C1211   1.487       .  S
C966       C1084   1.476       .  S
C967       C1043   1.493       .  S
C968       C1846   1.518       .  S
C968       C1015   1.478       .  S
Zn969       O973   1.964       .  S
Zn969       O974   2.037       .  S
Zn969       O978   2.021       .  S
Zn969       O985   2.022       .  S
Zn970       O973   1.931       .  S
Zn970       O975   1.979       .  S
Zn970       O977   1.985       .  S
Zn970       O981   1.995       .  S
Zn971       O973   1.965       .  S
Zn971       O976   2.017       .  S
Zn971       O979   2.046       .  S
Zn971       O982   2.013       .  S
Zn972       O973   1.964       .  S
Zn972       O980   2.002       .  S
Zn972       O983   2.034       .  S
Zn972       O984   2.009       .  S
O974        C986   1.275       .  A
O975        C987   1.270       .  A
O976        C988   1.273       .  A
O977        C986   1.271       .  A
O978        C988   1.273       .  A
O979        C987   1.276       .  A
O980        C989   1.272       .  A
O981        C990   1.271       .  A
O982        C989   1.274       .  A
O983        C990   1.274       .  A
O984        C991   1.273       .  A
O985        C991   1.275       .  A
C986       C1056   1.489       .  S
C987       C1071   1.484       .  S
C988       C1560   1.479       .  S
C989       C1588   1.474       .  S
C990       C1028   1.493       .  S
C991       C1532   1.479       .  S
Zn992      O1881   1.962   1_455  S
Zn992       O997   2.026   1_554  S
Zn992      O1008   2.031       .  S
Zn993      O2770   2.017   1_554  S
Zn993      O1004   2.035       .  S
Zn994       O996   1.953       .  S
Zn994      O2769   2.005   1_554  S
Zn994      O1002   2.009   1_554  S
Zn994      O1005   2.025       .  S
Zn995      O1006   1.992       .  S
Zn995      O2777   1.994       .  S
O996      Zn1877   1.962   1_565  S
O997       C1009   1.276       .  A
O998       C1010   1.275       .  A
O999      Zn2764   2.005   1_456  S
O999       C1011   1.271       .  A
O1000     Zn2763   2.017   1_456  S
O1000      C1009   1.274       .  A
O1001      C1011   1.276       .  A
O1002      C1010   1.272       .  A
O1003      C1012   1.272       .  A
O1004      C1013   1.275       .  A
O1005      C1012   1.274       .  A
O1006      C1013   1.270       .  A
O1007     Zn2765   1.994       .  S
O1007      C1014   1.272       .  A
O1008      C1014   1.275       .  A
C1009      C1295   1.490       .  S
C1010      C1267   1.491       .  S
C1011      C1323   1.488       .  S
C1012      C1112   1.488       .  S
C1013      C1168   1.476       .  S
C1014      C1140   1.477       .  S
C1015      C1016   1.407       .  A
C1015      C1020   1.401       .  A
C1016      C1017   1.402       .  A
C1016      N1021   1.431       .  S
C1017      C1018   1.402       .  A
C1017      H1022   1.084       .  S
C1018      C1023   1.476       .  S
C1018      C1019   1.407       .  A
C1019      C1020   1.404       .  A
C1019      N1024   1.437       .  S
C1020      H1025   1.084       .  S
N1021      H1041   1.046       .  S
N1021      H1042   1.045       .  S
C1023      C1026   1.401       .  A
C1023      C1030   1.403       .  A
N1024      H1039   1.046       .  S
N1024      H1040   1.046       .  S
C1026      C1027   1.408       .  A
C1026      H1031   1.084       .  S
C1027      C1028   1.419       .  A
C1027      N1032   1.438       .  S
C1028      C1029   1.411       .  A
C1029      C1030   1.402       .  A
C1029      H1033   1.083       .  S
C1030      N1034   1.438       .  S
N1032      H1035   1.046       .  S
N1032      H1036   1.045       .  S
N1034      H1037   1.045       .  S
N1034      H1038   1.046       .  S
C1043      C1044   1.420       .  A
C1043      C1048   1.404       .  A
C1044      C1045   1.404       .  A
C1044      N1049   1.437       .  S
C1045      C1046   1.404       .  A
C1045      H1050   1.084       .  S
C1046      C1051   1.483       .  S
C1046      C1047   1.406       .  A
C1047      C1048   1.399       .  A
C1047      N1052   1.438       .  S
C1048      H1053   1.079       .  S
N1049      H1069   1.041       .  S
N1049      H1070   1.045       .  S
C1051      C1054   1.403       .  A
C1051      C1058   1.406       .  A
N1052      H1067   1.046       .  S
N1052      H1068   1.046       .  S
C1054      C1055   1.407       .  A
C1054      H1059   1.084       .  S
C1055      C1056   1.416       .  A
C1055      N1060   1.438       .  S
C1056      C1057   1.409       .  A
C1057      C1058   1.401       .  A
C1057      H1061   1.083       .  S
C1058      N1062   1.436       .  S
N1060      H1063   1.046       .  S
N1060      H1064   1.046       .  S
N1062      H1065   1.046       .  S
N1062      H1066   1.045       .  S
C1071      C1072   1.414       .  A
C1071      C1076   1.407       .  A
C1072      C1073   1.409       .  A
C1072      N1077   1.437       .  S
C1073      C1074   1.403       .  A
C1073      H1078   1.084       .  S
C1074      C1079   1.479       .  S
C1074      C1075   1.406       .  A
C1075      C1076   1.400       .  A
C1075      N1080   1.439       .  S
C1076      H1081   1.084       .  S
N1077      H1097   1.045       .  S
N1077      H1098   1.046       .  S
C1079      C1082   1.401       .  A
C1079      C1086   1.409       .  A
N1080      H1095   1.045       .  S
N1080      H1096   1.046       .  S
C1082      C1083   1.397       .  A
C1082      H1087   1.084       .  S
C1083      C1084   1.416       .  A
C1084      C1085   1.401       .  A
C1085      C1086   1.404       .  A
C1085      H2859   1.082       .  S
C1086      N1090   1.437       .  S
N1088      H1091   1.046       .  S
N1088      H1092   1.042       .  S
H1089      C2855   1.082   1_455  S
N1090      H2863   1.046       .  S
N1090      H1094   1.046       .  S
H1093      N2860   1.046   1_455  S
C1099      C1100   1.407       .  A
C1099      C1104   1.401       .  A
C1100      C1101   1.402       .  A
C1100      N1105   1.436       .  S
C1101      C1102   1.400       .  A
C1101      H1106   1.084       .  S
C1102      C1107   1.472       .  S
C1102      C1103   1.408       .  A
C1103      C1104   1.403       .  A
C1103      N1108   1.437       .  S
C1104      H1109   1.083       .  S
N1105      H1125   1.044       .  S
N1105      H1126   1.045       .  S
C1107      C1110   1.399       .  A
C1107      C1114   1.404       .  A
N1108      H1123   1.046       .  S
N1108      H1124   1.045       .  S
C1110      C1111   1.406       .  A
C1110      H1115   1.084       .  S
C1111      C1112   1.418       .  A
C1111      N1116   1.438       .  S
C1112      C1113   1.410       .  A
C1113      C1114   1.403       .  A
C1113      H1117   1.083       .  S
C1114      N1118   1.438       .  S
N1116      H1119   1.046       .  S
N1116      H1120   1.045       .  S
N1118      H1121   1.046       .  S
N1118      H1122   1.046       .  S
C1127      C1128   1.420       .  A
C1127      C1132   1.406       .  A
C1128      C1129   1.399       .  A
C1128      N1133   1.436       .  S
C1129      C1130   1.399       .  A
C1129      H1134   1.084       .  S
C1130      C1135   1.474       .  S
C1130      C1131   1.405       .  A
C1131      C1132   1.404       .  A
C1131      N1136   1.437       .  S
C1132      H1137   1.084       .  S
N1133      H1153   1.038       .  S
N1133      H1154   1.046       .  S
C1135      C1138   1.398       .  A
C1135      C1142   1.408       .  A
N1136      H1151   1.046       .  S
N1136      H1152   1.046       .  S
C1138      C1139   1.403       .  A
C1138      H1143   1.084       .  S
C1139      C1140   1.414       .  A
C1139      N1144   1.438       .  S
C1140      C1141   1.404       .  A
C1141      C1142   1.407       .  A
C1141      H1145   1.084       .  S
C1142      N1146   1.437       .  S
N1144      H1147   1.046       .  S
N1144      H1148   1.046       .  S
N1146      H1149   1.046       .  S
N1146      H1150   1.046       .  S
C1155      C1156   1.419       .  A
C1155      C1160   1.406       .  A
C1156      C1157   1.400       .  A
C1156      N1161   1.436       .  S
C1157      C1158   1.400       .  A
C1157      H1162   1.084       .  S
C1158      C1163   1.474       .  S
C1158      C1159   1.405       .  A
C1159      C1160   1.402       .  A
C1159      N1164   1.438       .  S
C1160      H1165   1.084       .  S
N1161      H1181   1.039       .  S
N1161      H1182   1.046       .  S
C1163      C1166   1.398       .  A
C1163      C1170   1.409       .  A
N1164      H1179   1.046       .  S
N1164      H1180   1.045       .  S
C1166      C1167   1.403       .  A
C1166      H1171   1.084       .  S
C1167      C1168   1.414       .  A
C1168      C1169   1.403       .  A
C1169      C1170   1.406       .  A
C1169      H1173   1.084       .  S
C1170      N1174   1.438       .  S
N1172      H1175   1.046       .  S
N1172      H1176   1.046       .  S
N1174      H1177   1.046       .  S
N1174      H1178   1.045       .  S
C1183      C1184   1.421       .  A
C1183      C1188   1.405       .  A
C1184      C1185   1.398       .  A
C1184      N1189   1.436       .  S
C1185      C1186   1.401       .  A
C1185      H1190   1.084       .  S
C1186      C1191   1.496       .  S
C1186      C1187   1.415       .  A
C1187      C1188   1.412       .  A
C1187      N1192   1.437       .  S
C1188      H1193   1.082       .  S
N1189      H1209   1.039       .  S
N1189      H1210   1.045       .  S
C1191      C1194   1.406       .  A
C1191      C1198   1.415       .  A
N1192      H1207   1.046       .  S
N1192      H1208   1.046       .  S
C1194      C1195   1.408       .  A
C1194      H1199   1.083       .  S
C1195      C1196   1.408       .  A
C1195      N2970   1.434       .  S
C1196      C1197   1.401       .  A
C1197      C1198   1.407       .  A
C1198      N1202   1.438       .  S
N1200      C2965   1.434   1_455  S
N1200      H1203   1.046       .  S
N1200      H1204   1.045       .  S
N1202      H1206   1.046       .  S
C1211      C1212   1.409       .  A
C1211      C1216   1.400       .  A
C1212      C1213   1.408       .  A
C1212      N1217   1.435       .  S
C1213      C1214   1.407       .  A
C1213      H1218   1.083       .  S
C1214      C1219   1.497       .  S
C1214      C1215   1.415       .  A
C1215      C1216   1.405       .  A
C1215      N1220   1.438       .  S
C1216      H1221   1.079       .  S
C1219      C1222   1.404       .  A
C1219      C1226   1.416       .  A
N1220      H1235   1.046       .  S
N1220      H1236   1.046       .  S
C1222      C1223   1.399       .  A
C1222      H1227   1.083       .  S
C1223      C1224   1.418       .  A
C1223      N1228   1.439       .  S
C1224      C1225   1.403       .  A
C1225      C1226   1.410       .  A
C1225      H1229   1.084       .  S
C1226      N1230   1.438       .  S
N1228      H1231   1.046       .  S
N1228      H1232   1.043       .  S
N1230      H1233   1.046       .  S
N1230      H1234   1.046       .  S
C1239      C1240   1.418       .  A
C1239      C1244   1.403       .  A
C1240      C1241   1.405       .  A
C1240      N1245   1.437       .  S
C1241      C1242   1.405       .  A
C1241      H1246   1.084       .  S
C1242      C1247   1.495       .  S
C1242      C1243   1.411       .  A
C1243      C1244   1.406       .  A
C1243      N1248   1.432       .  S
C1244      H1249   1.083       .  S
N1245      H1265   1.041       .  S
N1245      H1266   1.046       .  S
C1247      C1250   1.407       .  A
C1247      C1254   1.408       .  A
N1248      H1263   1.046       .  S
N1248      H1264   1.046       .  S
C1250      C1251   1.410       .  A
C1250      H1255   1.084       .  S
C1251      C1252   1.411       .  A
C1251      N1256   1.430       .  S
C1252      C1253   1.407       .  A
C1253      C1254   1.403       .  A
C1253      H1257   1.083       .  S
C1254      N1258   1.430       .  S
N1256      H1259   1.045       .  S
N1256      H1260   1.045       .  S
N1258      H1261   1.043       .  S
N1258      H1262   1.045       .  S
C1267      C1268   1.420       .  A
C1267      C1272   1.409       .  A
C1268      C1269   1.405       .  A
C1268      N1273   1.438       .  S
C1269      C1270   1.400       .  A
C1269      H1274   1.084       .  S
C1270      C1275   1.481       .  S
C1270      C1271   1.407       .  A
C1271      C1272   1.403       .  A
C1271      N1276   1.438       .  S
C1272      H1277   1.083       .  S
N1273      H1293   1.046       .  S
N1273      H1294   1.046       .  S
C1275      C1278   1.402       .  A
C1275      C1282   1.410       .  A
N1276      H1291   1.046   1_565  S
N1276      H1292   1.046       .  S
C1278      C1279   1.401       .  A
C1278      H1283   1.084       .  S
C1279      C1280   1.411       .  A
C1279      N1284   1.437       .  S
C1280      C1281   1.404       .  A
C1281      C1282   1.403       .  A
C1281      H1285   1.083       .  S
C1282      N1286   1.438       .  S
N1284      H1287   1.045       .  S
N1284      H1288   1.044       .  S
N1286      H1289   1.046       .  S
N1286      H1290   1.046       .  S
C1295      C1296   1.418       .  A
C1295      C1300   1.407       .  A
C1296      C1297   1.407       .  A
C1296      N1301   1.438       .  S
C1297      C1298   1.401       .  A
C1297      H1302   1.084       .  S
C1298      C1303   1.484       .  S
C1298      C1299   1.408       .  A
C1299      C1300   1.405       .  A
C1299      N1304   1.438       .  S
C1300      H1305   1.083       .  S
N1301      H3091   1.046       .  S
N1301      H3092   1.046       .  S
C1303      C1306   1.402       .  A
C1303      C1310   1.411       .  A
N1304      H1319   1.046       .  S
N1304      H1320   1.046       .  S
C1306      C1307   1.404       .  A
C1306      H1311   1.084       .  S
C1307      C1308   1.410       .  A
C1307      N1312   1.437       .  S
C1308      C1309   1.404       .  A
C1309      C1310   1.406       .  A
C1309      H1313   1.084       .  S
C1310      N1314   1.437       .  S
N1312      H1315   1.045       .  S
N1312      H1316   1.045       .  S
N1314      H1317   1.046       .  S
N1314      H1318   1.046       .  S
H1321      N3071   1.046       .  S
H1322      N3071   1.046       .  S
C1323      C1324   1.419       .  A
C1323      C1328   1.406       .  A
C1324      C1325   1.406       .  A
C1324      N1329   1.438   1_455  S
C1325      C1326   1.399       .  A
C1325      H1330   1.084       .  S
C1326      C1331   1.482       .  S
C1326      C1327   1.410       .  A
C1327      C1328   1.404       .  A
C1327      N1332   1.438       .  S
C1328      H1333   1.083       .  S
N1329      H3119   1.046       .  S
N1329      H3120   1.046       .  S
C1331      C1334   1.400       .  A
C1331      C1338   1.409       .  A
N1332      H1348   1.046       .  S
C1334      C1335   1.397       .  A
C1334      H1339   1.084       .  S
C1335      C1336   1.419       .  A
C1335      N1340   1.435       .  S
C1336      C1337   1.405       .  A
C1337      C1338   1.404       .  A
C1337      H1341   1.084       .  S
C1338      N1342   1.437       .  S
N1340      H1343   1.045       .  S
N1340      H1344   1.037       .  S
N1342      H1345   1.046       .  S
N1342      H1346   1.046       .  S
H1349      N3099   1.046       .  S
H1350      N3099   1.046       .  S
C1351      C1352   1.420       .  A
C1351      C1356   1.404       .  A
C1352      C1353   1.401       .  A
C1352      N1357   1.439       .  S
C1353      C1354   1.401       .  A
C1353      H1358   1.084       .  S
C1354      C1359   1.490       .  S
C1354      C1355   1.412       .  A
C1355      C1356   1.410       .  A
C1355      N1360   1.437       .  S
C1356      H1361   1.084       .  S
N1357      H1377   1.043       .  S
N1357      H1378   1.045       .  S
C1359      C1362   1.406       .  A
C1359      C1366   1.410       .  A
N1360      H1375   1.046       .  S
N1360      H1376   1.045       .  S
C1362      C1363   1.411       .  A
C1362      H1367   1.084       .  S
C1363      C1364   1.411       .  A
C1364      C1365   1.405       .  A
C1365      C1366   1.404       .  A
C1365      H1369   1.084   1_455  S
C1366      N1370   1.438       .  S
N1368      H1371   1.045       .  S
N1368      H1372   1.044       .  S
N1370      H1373   1.046   1_455  S
N1370      H1374   1.046       .  S
C1379      C1380   1.413       .  A
C1379      C1384   1.400       .  A
C1380      C1381   1.407       .  A
C1380      N1385   1.439       .  S
C1381      C1382   1.403       .  A
C1381      H1386   1.084       .  S
C1382      C1387   1.489       .  S
C1382      C1383   1.412       .  A
C1383      C1384   1.407       .  A
C1383      N1388   1.437       .  S
C1384      H3159   1.084   1_455  S
N1385      H1405   1.041       .  S
N1385      H1406   1.046       .  S
C1387      C1390   1.405       .  A
C1387      C1394   1.408       .  A
N1388      H3173   1.046   1_455  S
N1388      H1404   1.046       .  S
H1389      C3154   1.084       .  S
C1390      C1391   1.410       .  A
C1390      H1395   1.084       .  S
C1391      C1392   1.412       .  A
C1391      N1396   1.436       .  S
C1392      C1393   1.409       .  A
C1393      C1394   1.406       .  A
C1393      H1397   1.083       .  S
C1394      N1398   1.438       .  S
N1396      H1399   1.046       .  S
N1396      H1400   1.043       .  S
N1398      H1401   1.046       .  S
N1398      H1402   1.046       .  S
H1403      N3158   1.046       .  S
C1407      C1408   1.422       .  A
C1407      C1412   1.404       .  A
C1408      C1409   1.401       .  A
C1408      N1413   1.435       .  S
C1409      C1410   1.401       .  A
C1409      H1414   1.084       .  S
C1410      C1415   1.499       .  S
C1410      C1411   1.416       .  A
C1411      C1412   1.414       .  A
C1411      N1416   1.437       .  S
C1412      H1417   1.084       .  S
N1413      H1433   1.039       .  S
N1413      H1434   1.045       .  S
C1415      C1418   1.408       .  A
C1415      C1422   1.415       .  A
N1416      H1431   1.045       .  S
N1416      H1432   1.046       .  S
C1418      C1419   1.410       .  A
C1418      H1423   1.083       .  S
C1419      C1420   1.409       .  A
C1419      N1424   1.437       .  S
C1420      C1421   1.403       .  A
C1421      C1422   1.408       .  A
C1421      H1425   1.084   1_565  S
C1422      N1426   1.438       .  S
N1424      H1427   1.045       .  S
N1424      H1428   1.045       .  S
N1426      H1429   1.046   1_565  S
N1426      H1430   1.045       .  S
C1435      C1436   1.406       .  A
C1435      C1440   1.404       .  A
C1436      C1437   1.396       .  A
C1437      C1438   1.400       .  A
C1437      H1442   1.084       .  S
C1438      C1443   1.473       .  S
C1438      C1439   1.409       .  A
C1439      C1440   1.405       .  A
C1439      N1444   1.437       .  S
C1440      H1445   1.083       .  S
N1441      H1461   1.045       .  S
N1441      H1462   1.046       .  S
C1443      C1446   1.401       .  A
C1443      C1450   1.406       .  A
N1444      H1459   1.046       .  S
N1444      H1460   1.046       .  S
C1446      C1447   1.406       .  A
C1446      H1451   1.084       .  S
C1447      C1448   1.415       .  A
C1447      N1452   1.438       .  S
C1448      C1449   1.404       .  A
C1449      C1450   1.398       .  A
C1449      H1453   1.083       .  S
C1450      N1454   1.438       .  S
N1452      H1455   1.046       .  S
N1452      H1456   1.046       .  S
N1454      H1457   1.046       .  S
N1454      H1458   1.046       .  S
C1463      C1464   1.417       .  A
C1463      C1468   1.405       .  A
C1464      C1465   1.408       .  A
C1464      N1469   1.438       .  S
C1465      C1466   1.402       .  A
C1465      H1470   1.084       .  S
C1466      C1471   1.487       .  S
C1466      C1467   1.411       .  A
C1467      C1468   1.405       .  A
C1467      N1472   1.438       .  S
C1468      H1473   1.083       .  S
N1469      H1489   1.046       .  S
N1469      H1490   1.046       .  S
C1471      C1474   1.404       .  A
C1471      C1478   1.410       .  A
N1472      H1487   1.046       .  S
N1472      H1488   1.046       .  S
C1474      C1475   1.401       .  A
C1474      H1479   1.084       .  S
C1475      C1476   1.417       .  A
C1475      N1480   1.438   1_455  S
C1476      C1477   1.404       .  A
C1477      C1478   1.405       .  A
C1477      H1481   1.084       .  S
C1478      N1482   1.438       .  S
N1480      H1483   1.045   1_655  S
N1480      H3254   1.042       .  S
N1482      H1485   1.046       .  S
N1482      H1486   1.046       .  S
H1484      N3250   1.042       .  S
C1491      C1492   1.414       .  A
C1491      C1496   1.406       .  A
C1492      C1493   1.402       .  A
C1492      N1497   1.438       .  S
C1493      C1494   1.400       .  A
C1493      H1498   1.084       .  S
C1494      C1499   1.476       .  S
C1494      C1495   1.408       .  A
C1495      C1496   1.403       .  A
C1495      N1500   1.438       .  S
C1496      H1501   1.084       .  S
N1497      H1517   1.046       .  S
N1497      H1518   1.046       .  S
C1499      C1502   1.402       .  A
C1499      C1506   1.411       .  A
N1500      H1515   1.046       .  S
N1500      H1516   1.046       .  S
C1502      C1503   1.398       .  A
C1502      H1507   1.084       .  S
C1503      C1504   1.404       .  A
C1503      N3278   1.432   1_455  S
C1504      C1505   1.401       .  A
C1505      C1506   1.403       .  A
C1506      N1510   1.437       .  S
N1508      C3273   1.432       .  S
N1508      H1511   1.046       .  S
N1508      H1512   1.045       .  S
N1510      H1514   1.045       .  S
C1519      C1520   1.414       .  A
C1519      C1524   1.410       .  A
C1520      C1521   1.399       .  A
C1520      N1525   1.427       .  S
C1521      C1522   1.394       .  A
C1521      H1526   1.084       .  S
C1522      C1527   1.475       .  S
C1522      C1523   1.407       .  A
C1523      C1524   1.409       .  A
C1523      N1528   1.437       .  S
C1524      H1529   1.083       .  S
N1525      H1545   1.045       .  S
N1525      H1546   1.046       .  S
C1527      C1530   1.400       .  A
C1527      C1534   1.408       .  A
N1528      H1543   1.046       .  S
N1528      H1544   1.045       .  S
C1530      C1531   1.404       .  A
C1530      H1535   1.084       .  S
C1531      C1532   1.414       .  A
C1531      N1536   1.438       .  S
C1532      C1533   1.405       .  A
C1533      C1534   1.406       .  A
C1533      H1537   1.084       .  S
C1534      N1538   1.438       .  S
N1536      H1539   1.046       .  S
N1536      H1540   1.046       .  S
N1538      H1541   1.046       .  S
N1538      H1542   1.045       .  S
C1547      C1548   1.422       .  A
C1547      C1552   1.405       .  A
C1548      C1549   1.404       .  A
C1548      N1553   1.436       .  S
C1549      C1550   1.401       .  A
C1549      H1554   1.084       .  S
C1550      C1555   1.479       .  S
C1550      C1551   1.406       .  A
C1551      C1552   1.402       .  A
C1551      N1556   1.438       .  S
C1552      H1557   1.084       .  S
N1553      H1573   1.041       .  S
N1553      H1574   1.045       .  S
C1555      C1558   1.402       .  A
C1555      C3332   1.408   1_455  A
N1556      H1571   1.046       .  S
N1556      H1572   1.045       .  S
C1558      C3329   1.407   1_455  A
C1558      H1563   1.084       .  S
C1559      C3328   1.407       .  A
C1559      C1560   1.412       .  A
C1559      N1564   1.438       .  S
C1560      C1561   1.405       .  A
C1561      C1562   1.406       .  A
C1561      H1565   1.084       .  S
C1562      C3325   1.408       .  A
C1562      N1566   1.438       .  S
N1564      H1567   1.046       .  S
N1564      H1568   1.046       .  S
N1566      H1569   1.046       .  S
N1566      H1570   1.045       .  S
C1575      C1576   1.406       .  A
C1575      C1580   1.397       .  A
C1576      C1577   1.408       .  A
C1576      N1581   1.436       .  S
C1577      C1578   1.406       .  A
C1577      H1582   1.083       .  S
C1578      C1583   1.484   1_565  S
C1578      C1579   1.411       .  A
C1579      C1580   1.398       .  A
C1579      N1584   1.439       .  S
C1580      H1585   1.079       .  S
N1581      H1601   1.045       .  S
N1581      H1602   1.045       .  S
C1583      C1590   1.412   1_545  A
N1584      H1599   1.046       .  S
N1584      H1600   1.046       .  S
C1586      C1587   1.402       .  A
C1586      H1591   1.084       .  S
C1587      C1588   1.412       .  A
C1587      N1592   1.439       .  S
C1588      C1589   1.403       .  A
C1589      H1593   1.084       .  S
C1590      N1594   1.438       .  S
N1592      H1595   1.046       .  S
N1592      H1596   1.046       .  S
N1594      H1597   1.046       .  S
N1594      H1598   1.046       .  S
C1603      C1604   1.410       .  A
C1603      C1608   1.402       .  A
C1604      C1605   1.398       .  A
C1604      N1609   1.435       .  S
C1605      C1606   1.398       .  A
C1605      H1610   1.084       .  S
C1606      C1611   1.476       .  S
C1606      C1607   1.412       .  A
C1607      C1608   1.405       .  A
C1607      N1612   1.438       .  S
C1608      H1613   1.084       .  S
N1609      H1629   1.044       .  S
N1609      H1630   1.046       .  S
C1611      C1614   1.397       .  A
C1611      C1618   1.409       .  A
N1612      H1627   1.046       .  S
N1612      H1628   1.046       .  S
C1614      C1615   1.402       .  A
C1614      H1619   1.084       .  S
C1615      C1616   1.422       .  A
C1615      N1620   1.439       .  S
C1616      C1617   1.406       .  A
C1617      C1618   1.402       .  A
C1617      H1621   1.083       .  S
C1618      N1622   1.438       .  S
N1620      H1623   1.046       .  S
N1620      H1624   1.046       .  S
N1622      H1625   1.046       .  S
N1622      H1626   1.046       .  S
C1631      C1632   1.414       .  A
C1631      C1636   1.411       .  A
C1632      C3403   1.406   1_455  A
C1632      N1637   1.437       .  S
C1633      C3402   1.406       .  A
C1633      C1634   1.402       .  A
C1633      H1638   1.084       .  S
C1634      C1639   1.475       .  S
C1634      C3405   1.405       .  A
C1635      C3404   1.405   1_455  A
C1635      C1636   1.400       .  A
C1635      N1640   1.439       .  S
C1636      H1641   1.083       .  S
N1637      H1657   1.046       .  S
N1637      H1658   1.046   1_455  S
C1639      C1642   1.401       .  A
C1639      C1646   1.406       .  A
N1640      H1655   1.046       .  S
N1640      H1656   1.046       .  S
C1642      C1643   1.398       .  A
C1642      H1647   1.084       .  S
C1643      C1644   1.419       .  A
C1643      N1648   1.438       .  S
C1644      C1645   1.402       .  A
C1645      C1646   1.399       .  A
C1645      H1649   1.082       .  S
C1646      N1650   1.438       .  S
N1648      H1651   1.045       .  S
N1648      H1652   1.042       .  S
N1650      H1653   1.046       .  S
N1650      H1654   1.046       .  S
C1659      C1660   1.418       .  A
C1659      C1664   1.409       .  A
C1660      C1661   1.410   1_565  A
C1660      N1665   1.438       .  S
C1662      C1667   1.476       .  S
C1663      C1664   1.400       .  A
C1663      N1668   1.439       .  S
C1664      H1669   1.083       .  S
N1665      H1685   1.046       .  S
N1665      H1686   1.046   1_565  S
C1667      C1670   1.400       .  A
C1667      C1674   1.407       .  A
N1668      H1683   1.045       .  S
C1670      C1671   1.403       .  A
C1670      H1675   1.084       .  S
C1671      C1672   1.411       .  A
C1671      N1676   1.435       .  S
C1672      C1673   1.404       .  A
C1673      C1674   1.406       .  A
C1673      H1677   1.084       .  S
C1674      N1678   1.437       .  S
N1676      H1679   1.045       .  S
N1676      H1680   1.042       .  S
N1678      H1681   1.046       .  S
N1678      H1682   1.046       .  S
C1687      C1688   1.409       .  A
C1687      C1692   1.408       .  A
C1688      C1689   1.408       .  A
C1688      N1693   1.431       .  S
C1689      C1690   1.404       .  A
C1689      H1694   1.084       .  S
C1690      C1695   1.486       .  S
C1690      C1691   1.408       .  A
C1691      C1692   1.407       .  A
C1691      N1696   1.438       .  S
C1692      H1697   1.083       .  S
N1693      H1713   1.045       .  S
N1693      H1714   1.045       .  S
C1695      C1698   1.403       .  A
C1695      C1702   1.406       .  A
N1696      H1711   1.046       .  S
N1696      H1712   1.044       .  S
C1698      C1699   1.413       .  A
C1698      H1703   1.084       .  S
C1699      C1700   1.415       .  A
C1699      N1704   1.434       .  S
C1700      C1701   1.411       .  A
C1701      C1702   1.406       .  A
C1701      H1705   1.082       .  S
C1702      N1706   1.438       .  S
N1704      H1707   1.045       .  S
N1704      H1708   1.041       .  S
N1706      H1709   1.046       .  S
N1706      H1710   1.044       .  S
C1715      C1716   1.417       .  A
C1715      C1720   1.397       .  A
C1716      C1717   1.407       .  A
C1716      N1721   1.438       .  S
C1717      C1718   1.412       .  A
C1717      H1722   1.081       .  S
C1718      C1719   1.421       .  A
C1719      C1720   1.405       .  A
C1719      N1724   1.432       .  S
C1720      H1725   1.082       .  S
N1721      H1741   1.043       .  S
N1721      H1742   1.045       .  S
C1723      C1726   1.410       .  A
C1723      C1730   1.426       .  A
N1724      H1739   1.046       .  S
C1726      C1727   1.403       .  A
C1726      H1731   1.079       .  S
C1727      C1728   1.406       .  A
C1727      N1732   1.436       .  S
C1728      C1729   1.399       .  A
C1729      C1730   1.415       .  A
C1729      H1733   1.083       .  S
C1730      N1734   1.437       .  S
N1732      H1735   1.046       .  S
N1732      H1736   1.046       .  S
N1734      H1737   1.046       .  S
N1734      H1738   1.046       .  S
C1743      C1744   1.413       .  A
C1743      C1748   1.404       .  A
C1744      C1745   1.409       .  A
C1744      N1749   1.438       .  S
C1745      C1746   1.402       .  A
C1745      H1750   1.084       .  S
C1746      C3521   1.493   1_455  S
C1746      C1747   1.413       .  A
C1747      C1748   1.413       .  A
C1747      N1752   1.437       .  S
C1748      H1753   1.083       .  S
N1749      H1769   1.045       .  S
N1749      H1770   1.045       .  S
C1751      C3516   1.493       .  S
C1751      C1754   1.400       .  A
C1751      C1758   1.414       .  A
N1752      H1767   1.046       .  S
N1752      H1768   1.046       .  S
C1754      C1755   1.408       .  A
C1754      H1759   1.084       .  S
C1755      C1756   1.417       .  A
C1755      N1760   1.436       .  S
C1756      C1757   1.403       .  A
C1757      C1758   1.413       .  A
C1757      H1761   1.083       .  S
C1758      N1762   1.437       .  S
N1760      H1763   1.045       .  S
N1760      H1764   1.044       .  S
N1762      H1765   1.045       .  S
N1762      H1766   1.044       .  S
C1771      H1772   1.112       .  S
C1771      C1777   1.518       .  S
C1771      C1776   1.520       .  S
C1771      C1775   1.523       .  S
C1773      H1774   1.109       .  S
C1773      C1779   1.557       .  S
C1773      C1778   1.555       .  S
C1773      C1780   1.565       .  S
C1775      C1778   1.374       .  D
C1775      C2529   1.479       .  S
C1776      C1779   1.373       .  D
C1776      C2557   1.482       .  S
C1777      C1780   1.380       .  D
C1777      C2488   1.482       .  S
C1778      C2641   1.502       .  S
C1779      C2600   1.491       .  S
C1780      C2585   1.508       .  S
C1781      H1782   1.110       .  S
C1781      C1787   1.547       .  S
C1781      C1786   1.554       .  S
C1781      C1785   1.552       .  S
C1783      H1784   1.109       .  S
C1783      C1789   1.528       .  S
C1783      C1788   1.536       .  S
C1783      C1790   1.527       .  S
C1785      C1788   1.383       .  D
C1785      C2572   1.497       .  S
C1786      C1789   1.377       .  D
C1786      C2628   1.496       .  S
C1787      C1790   1.373       .  D
C1787      C2613   1.494       .  S
C1788      C2404   1.502       .  S
C1789      C2432   1.493       .  S
C1790      C2460   1.481       .  S
Zn1791     O1795   1.960       .  S
Zn1791     O1796   2.016       .  S
Zn1791     O1800   2.026       .  S
Zn1791     O1807   2.045       .  S
Zn1792     O1795   1.956       .  S
Zn1792     O1797   2.000       .  S
Zn1792     O1799   1.998       .  S
Zn1792     O1803   2.035       .  S
Zn1793     O1795   1.961       .  S
Zn1793     O1798   2.018       .  S
Zn1793     O1801   1.999       .  S
Zn1793     O1804   2.022       .  S
Zn1794     O1795   1.926       .  S
Zn1794     O1802   1.970       .  S
Zn1794     O1805   1.982       .  S
Zn1794     O1806   1.973       .  S
O1796      C1808   1.275       .  A
O1797      C1809   1.273       .  A
O1798      C1810   1.273       .  A
O1799      C1808   1.272       .  A
O1800      C1810   1.275       .  A
O1801      C1809   1.271       .  A
O1802      C1811   1.267       .  A
O1803      C1812   1.273       .  A
O1804      C1811   1.275       .  A
O1805      C1812   1.269       .  A
O1806      C1813   1.269       .  A
O1807      C1813   1.277       .  A
C1808      C2376   1.478       .  S
C1809      C2333   1.477       .  S
C1810      C2348   1.487       .  S
C1811      C2501   1.485       .  S
C1812      C2544   1.490       .  S
C1813      C2516   1.486       .  S
C1814      H1815   1.112       .  S
C1814      C1820   1.523   1_565  S
C1814      C2704   1.523       .  S
C1816      H1817   1.109       .  S
C1816      C2707   1.546       .  S
C1816      C1823   1.550   1_565  S
C1818      C1821   1.373       .  D
C1818      C2320   1.479       .  S
C1819      C2699   1.523       .  S
C1819      C1822   1.374       .  D
C1819      C2389   1.474       .  S
C1820      C1823   1.375       .  D
C1820      C2361   1.485       .  S
C1821      C2305   1.490       .  S
C1822      C2701   1.546       .  S
C1822      C2249   1.493       .  S
C1823      C2264   1.485       .  S
C1824      H1825   1.110       .  S
C1824      C1830   1.553       .  S
C1824      C1829   1.557       .  S
C1824      C1828   1.553       .  S
C1826      H1827   1.111       .  S
C1826      C1832   1.523       .  S
C1826      C1831   1.524       .  S
C1826      C1833   1.527       .  S
C1828      C1831   1.375       .  D
C1828      C2236   1.490       .  S
C1829      C1832   1.378       .  D
C1829      C2277   1.501       .  S
C1830      C1833   1.376       .  D
C1830      C2292   1.501       .  S
C1831      C2221   1.487       .  S
C1832      C2193   1.487       .  S
C1833      C2165   1.485       .  S
C1834      H1835   1.112       .  S
C1834      C1840   1.521       .  S
C1834      C1839   1.522       .  S
C1834      C1838   1.525       .  S
C1836      H1837   1.111       .  S
C1836      C1842   1.558       .  S
C1836      C1841   1.549       .  S
C1836      C1843   1.549       .  S
C1838      C1841   1.378       .  D
C1838      C2012   1.486       .  S
C1839      C1842   1.380       .  D
C1839      C2040   1.486       .  S
C1840      C1843   1.368       .  D
C1840      C1984   1.473       .  S
C1841      C2109   1.492       .  S
C1842      C2068   1.498       .  S
C1843      C2124   1.490       .  S
C1844      H1845   1.110       .  S
C1844      C1849   1.558       .  S
C1844      C2733   1.547       .  S
C1846      C1852   1.528   1_455  S
C1846      C2736   1.526   1_455  S
C1848      C2729   1.547   1_545  S
C1848      C1851   1.369       .  D
C1848      C2081   1.490       .  S
C1849      C1852   1.385       .  D
C1849      C2137   1.502       .  S
C1850      C1853   1.369       .  D
C1850      C2096   1.487       .  S
C1851      C2731   1.526   1_655  S
C1851      C1969   1.476       .  S
C1852      C1928   1.493       .  S
C1853      C1900   1.477       .  S
Zn1854     O1858   1.964       .  S
Zn1854     O1859   2.038       .  S
Zn1854     O1863   2.021       .  S
Zn1854     O1870   2.022       .  S
Zn1855     O1858   1.931       .  S
Zn1855     O1860   1.979       .  S
Zn1855     O1862   1.985       .  S
Zn1855     O1866   1.995       .  S
Zn1856     O1858   1.965       .  S
Zn1856     O1861   2.017       .  S
Zn1856     O1864   2.046       .  S
Zn1856     O1867   2.014       .  S
Zn1857     O1858   1.964       .  S
Zn1857     O1865   2.002       .  S
Zn1857     O1868   2.033       .  S
Zn1857     O1869   2.008       .  S
O1859      C1871   1.275       .  A
O1860      C1872   1.270       .  A
O1861      C1873   1.273       .  A
O1862      C1871   1.271       .  A
O1863      C1873   1.274       .  A
O1864      C1872   1.276       .  A
O1865      C1874   1.272       .  A
O1866      C1875   1.271       .  A
O1867      C1874   1.274       .  A
O1868      C1875   1.273       .  A
O1869      C1876   1.273       .  A
O1870      C1876   1.275       .  A
C1871      C1941   1.489       .  S
C1872      C1956   1.483       .  S
C1873      C2445   1.479       .  S
C1874      C2473   1.474       .  S
C1875      C1913   1.493       .  S
C1876      C2417   1.479       .  S
Zn1877     O1882   2.026   1_554  S
Zn1877     O2771   2.026   1_544  S
Zn1877     O1893   2.031       .  S
Zn1878     O2766   1.962   1_545  S
Zn1878     O2768   2.017   1_544  S
Zn1878     O1889   2.035       .  S
Zn1879     O1881   1.954       .  S
Zn1879     O1887   2.009   1_554  S
Zn1879     O1890   2.025       .  S
Zn1880     O2766   1.938   1_445  S
Zn1880     O2773   1.999   1_445  S
Zn1880     O1891   1.992   1_455  S
O1881     Zn2763   1.962       .  S
O1881     Zn2765   1.938   1_655  S
O1882      C1894   1.276       .  A
O1883     Zn2763   2.016   1_556  S
O1883      C1895   1.275       .  A
O1884      C1896   1.271       .  A
O1885      C1894   1.274       .  A
O1886     Zn2762   2.026   1_556  S
O1886      C1896   1.276       .  A
O1887      C1895   1.272       .  A
O1888     Zn2765   2.000   1_655  S
O1888      C1897   1.272       .  A
O1889      C1898   1.275       .  A
O1890      C1897   1.274       .  A
O1891      C1898   1.270       .  A
O1892      C1899   1.272       .  A
O1893      C1899   1.275       .  A
C1894      C2180   1.490       .  S
C1895      C2152   1.491       .  S
C1896      C2208   1.488       .  S
C1897      C1997   1.488       .  S
C1898      C2053   1.476       .  S
C1899      C2025   1.477       .  S
C1900      C1901   1.407       .  A
C1900      C1905   1.401       .  A
C1901      C1902   1.402       .  A
C1901      N1906   1.431       .  S
C1902      C1903   1.402       .  A
C1902      H1907   1.084       .  S
C1903      C1908   1.476       .  S
C1903      C1904   1.407       .  A
C1904      C1905   1.404       .  A
C1904      N1909   1.437   1_545  S
C1905      H1910   1.084   1_545  S
N1906      H1926   1.046       .  S
N1906      H1927   1.045       .  S
C1908      C1911   1.401       .  A
C1908      C1915   1.403       .  A
N1909      H1924   1.046       .  S
N1909      H1925   1.046   1_565  S
C1911      C1912   1.408       .  A
C1911      H1916   1.084       .  S
C1912      C1913   1.419       .  A
C1912      N1917   1.438       .  S
C1913      C1914   1.411       .  A
C1914      C1915   1.402       .  A
C1914      H1918   1.083       .  S
C1915      N1919   1.438       .  S
N1917      H1920   1.046       .  S
N1917      H1921   1.045       .  S
N1919      H1922   1.045       .  S
N1919      H1923   1.046       .  S
C1928      C1929   1.420       .  A
C1928      C1933   1.404       .  A
C1929      C1930   1.404       .  A
C1929      N1934   1.437   1_655  S
C1930      C1931   1.404       .  A
C1930      H1935   1.084       .  S
C1931      C1936   1.483       .  S
C1931      C1932   1.406       .  A
C1932      C1933   1.399       .  A
C1932      N1937   1.438       .  S
C1933      H1938   1.079       .  S
N1934      H1954   1.041       .  S
N1934      H1955   1.045   1_455  S
C1936      C1939   1.403       .  A
C1936      C1943   1.406       .  A
N1937      H1952   1.046       .  S
N1937      H1953   1.046       .  S
C1939      C1940   1.407       .  A
C1939      H1944   1.084       .  S
C1940      C1941   1.416       .  A
C1940      N1945   1.438       .  S
C1941      C1942   1.409       .  A
C1942      C1943   1.401       .  A
C1942      H1946   1.083       .  S
C1943      N1947   1.436       .  S
N1945      H1948   1.046       .  S
N1945      H1949   1.046       .  S
N1947      H1950   1.046       .  S
N1947      H1951   1.045       .  S
C1956      C1957   1.414       .  A
C1956      C1961   1.407       .  A
C1957      C1958   1.409       .  A
C1957      N1962   1.437       .  S
C1958      C1959   1.403       .  A
C1958      H1963   1.084       .  S
C1959      C1964   1.479       .  S
C1959      C1960   1.406       .  A
C1960      C1961   1.400       .  A
C1960      N1965   1.439       .  S
C1961      H1966   1.084       .  S
N1962      H1982   1.045       .  S
N1962      H1983   1.046       .  S
C1964      C1967   1.401       .  A
C1964      C1971   1.409       .  A
N1965      H1980   1.045       .  S
N1965      H1981   1.046       .  S
C1967      C1968   1.397       .  A
C1967      H1972   1.084       .  S
C1968      C1969   1.416       .  A
C1968      N2858   1.438   1_545  S
C1969      C1970   1.401       .  A
C1970      C1971   1.404       .  A
C1971      N1975   1.437       .  S
N1973      C2853   1.438       .  S
N1973      H1976   1.046       .  S
N1973      H1977   1.042       .  S
N1975      H1979   1.046       .  S
C1984      C1985   1.407       .  A
C1984      C1989   1.401       .  A
C1985      C1986   1.402       .  A
C1985      N1990   1.436       .  S
C1986      C1987   1.400       .  A
C1986      H1991   1.084       .  S
C1987      C1992   1.472       .  S
C1987      C1988   1.408       .  A
C1988      C1989   1.403       .  A
C1988      N1993   1.437       .  S
C1989      H1994   1.083       .  S
N1990      H2010   1.045       .  S
N1990      H2011   1.045       .  S
C1992      C1995   1.399       .  A
C1992      C1999   1.404       .  A
N1993      H2008   1.046       .  S
N1993      H2009   1.045       .  S
C1995      C1996   1.406       .  A
C1995      H2000   1.084       .  S
C1996      C1997   1.418       .  A
C1996      N2001   1.438       .  S
C1997      C1998   1.410       .  A
C1998      C1999   1.403       .  A
C1998      H2002   1.083       .  S
C1999      N2003   1.438       .  S
N2001      H2004   1.046       .  S
N2001      H2005   1.045       .  S
N2003      H2006   1.046       .  S
N2003      H2007   1.046       .  S
C2012      C2013   1.420       .  A
C2012      C2017   1.406       .  A
C2013      C2014   1.399       .  A
C2013      N2018   1.436       .  S
C2014      C2015   1.399       .  A
C2014      H2019   1.084       .  S
C2015      C2020   1.474       .  S
C2015      C2016   1.405       .  A
C2016      C2017   1.403       .  A
C2016      N2021   1.437       .  S
C2017      H2022   1.084       .  S
N2018      H2038   1.038       .  S
N2018      H2039   1.046       .  S
C2020      C2023   1.398       .  A
C2020      C2027   1.408       .  A
N2021      H2036   1.046       .  S
N2021      H2037   1.045       .  S
C2023      C2024   1.402       .  A
C2023      H2028   1.084       .  S
C2024      C2025   1.414       .  A
C2024      N2029   1.438       .  S
C2025      C2026   1.404       .  A
C2026      C2027   1.406       .  A
C2026      H2030   1.084       .  S
C2027      N2031   1.437       .  S
N2029      H2032   1.046       .  S
N2029      H2033   1.046       .  S
N2031      H2034   1.046       .  S
N2031      H2035   1.046       .  S
C2040      C2041   1.419       .  A
C2040      C2045   1.406       .  A
C2041      C2042   1.400       .  A
C2041      N2046   1.436       .  S
C2042      C2043   1.400       .  A
C2042      H2047   1.084       .  S
C2043      C2048   1.474       .  S
C2043      C2044   1.405       .  A
C2044      C2045   1.402       .  A
C2044      N2049   1.438       .  S
C2045      H2050   1.084       .  S
N2046      H2066   1.039       .  S
N2046      H2067   1.046       .  S
C2048      C2051   1.398       .  A
C2048      C2055   1.409       .  A
N2049      H2064   1.046       .  S
N2049      H2065   1.045       .  S
C2051      C2052   1.403       .  A
C2051      H2056   1.084       .  S
C2052      C2053   1.414       .  A
C2052      N2942   1.438   1_545  S
C2053      C2054   1.403       .  A
C2054      C2055   1.406       .  A
C2054      H2058   1.084       .  S
C2055      N2059   1.438       .  S
N2057      C2937   1.438       .  S
N2057      H2060   1.046       .  S
N2057      H2061   1.046       .  S
N2059      H2062   1.046       .  S
N2059      H2063   1.045       .  S
C2068      C2069   1.421       .  A
C2068      C2073   1.405       .  A
C2069      C2070   1.398       .  A
C2069      N2074   1.436       .  S
C2070      C2071   1.401       .  A
C2070      H2075   1.084       .  S
C2071      C2076   1.496       .  S
C2071      C2072   1.415       .  A
C2072      C2073   1.412       .  A
C2072      N2077   1.437       .  S
C2073      H2078   1.082       .  S
N2074      H2094   1.039       .  S
N2074      H2095   1.045       .  S
C2076      C2079   1.406       .  A
C2076      C2083   1.415       .  A
N2077      H2092   1.046       .  S
N2077      H2093   1.046       .  S
C2079      C2080   1.408       .  A
C2079      H2084   1.083       .  S
C2080      C2081   1.408       .  A
C2081      C2082   1.401       .  A
C2082      C2083   1.407       .  A
C2082      H2971   1.081   1_545  S
C2083      N2087   1.438       .  S
N2085      H2088   1.046       .  S
N2085      H2089   1.045       .  S
H2086      C2967   1.081       .  S
N2087      H2975   1.046   1_545  S
N2087      H2091   1.046       .  S
H2090      N2972   1.046       .  S
C2096      C2097   1.409       .  A
C2096      C2101   1.400       .  A
C2097      C2098   1.408       .  A
C2097      N2102   1.435   1_545  S
C2098      C2099   1.407       .  A
C2098      H2103   1.083       .  S
C2099      C2104   1.497       .  S
C2099      C2100   1.415       .  A
C2100      C2101   1.405       .  A
C2100      N2105   1.438       .  S
C2101      H2106   1.079       .  S
N2102      H3007   1.043       .  S
N2102      H3008   1.045       .  S
C2104      C2107   1.404       .  A
C2104      C2111   1.416       .  A
N2105      H2120   1.046       .  S
N2105      H2121   1.046       .  S
C2107      C2108   1.399       .  A
C2107      H2112   1.083       .  S
C2108      C2109   1.418       .  A
C2108      N2113   1.439       .  S
C2109      C2110   1.403       .  A
C2110      C2111   1.410       .  A
C2110      H2114   1.084       .  S
C2111      N2115   1.438       .  S
N2113      H2116   1.046       .  S
N2113      H2117   1.043       .  S
N2115      H2118   1.046       .  S
N2115      H2119   1.046       .  S
H2122      N2987   1.043       .  S
H2123      N2987   1.045       .  S
C2124      C2125   1.418       .  A
C2124      C2129   1.403       .  A
C2125      C2126   1.405       .  A
C2125      N2130   1.437       .  S
C2126      C2127   1.405       .  A
C2126      H2131   1.084       .  S
C2127      C2132   1.495       .  S
C2127      C2128   1.411       .  A
C2128      C2129   1.406       .  A
C2128      N2133   1.432       .  S
C2129      H2134   1.083       .  S
N2130      H2150   1.040       .  S
N2130      H2151   1.046       .  S
C2132      C2135   1.407       .  A
C2132      C2139   1.408       .  A
N2133      H2148   1.046       .  S
N2133      H2149   1.046       .  S
C2135      C2136   1.410       .  A
C2135      H2140   1.084       .  S
C2136      C2137   1.411       .  A
C2136      N2141   1.430   1_655  S
C2137      C2138   1.407       .  A
C2138      C2139   1.403       .  A
C2138      H2142   1.083       .  S
C2139      N2143   1.431       .  S
N2141      H2144   1.045       .  S
N2141      H2145   1.045   1_455  S
N2143      H2146   1.043       .  S
N2143      H2147   1.045       .  S
C2152      C2153   1.420       .  A
C2152      C2157   1.409       .  A
C2153      C2154   1.405       .  A
C2153      N2158   1.438       .  S
C2154      C2155   1.400       .  A
C2154      H2159   1.084       .  S
C2155      C2160   1.481       .  S
C2155      C2156   1.407       .  A
C2156      C2157   1.403       .  A
C2156      N2161   1.438       .  S
C2157      H2162   1.083       .  S
N2158      H2178   1.046       .  S
N2158      H2179   1.046       .  S
C2160      C2163   1.401       .  A
C2160      C2167   1.410       .  A
N2161      H2176   1.046       .  S
N2161      H2177   1.046       .  S
C2163      C2164   1.401       .  A
C2163      H2168   1.084       .  S
C2164      C2165   1.411       .  A
C2164      N2169   1.437       .  S
C2165      C2166   1.404       .  A
C2166      C2167   1.403       .  A
C2166      H2170   1.083       .  S
C2167      N2171   1.438       .  S
N2169      H2172   1.045       .  S
N2169      H2173   1.044       .  S
N2171      H2174   1.046       .  S
N2171      H2175   1.046       .  S
C2180      C2181   1.418       .  A
C2180      C2185   1.407       .  A
C2181      C2182   1.407       .  A
C2181      N2186   1.438       .  S
C2182      C2183   1.401       .  A
C2182      H2187   1.084       .  S
C2183      C2188   1.484       .  S
C2183      C2184   1.408       .  A
C2184      C2185   1.405       .  A
C2184      N2189   1.438       .  S
C2185      H2190   1.083       .  S
C2188      C2191   1.402       .  A
C2188      C2195   1.411       .  A
N2189      H2204   1.046       .  S
N2189      H2205   1.046       .  S
C2191      C2192   1.404       .  A
C2191      H2196   1.084       .  S
C2192      C2193   1.410       .  A
C2192      N2197   1.437       .  S
C2193      C2194   1.404       .  A
C2194      C2195   1.406       .  A
C2194      H2198   1.084       .  S
C2195      N2199   1.437       .  S
N2197      H2200   1.045       .  S
N2197      H2201   1.045       .  S
N2199      H2202   1.046       .  S
N2199      H2203   1.046       .  S
C2208      C2209   1.419       .  A
C2208      C2213   1.406       .  A
C2209      C2210   1.406       .  A
C2209      N2214   1.438       .  S
C2210      C2211   1.400       .  A
C2210      H2215   1.084       .  S
C2211      C2216   1.482       .  S
C2211      C2212   1.410       .  A
C2212      C2213   1.404       .  A
C2212      N2217   1.438       .  S
C2213      H2218   1.083       .  S
C2216      C2219   1.400       .  A
C2216      C2223   1.409       .  A
N2217      H3117   1.046       .  S
N2217      H2233   1.046       .  S
C2219      C2220   1.398       .  A
C2219      H2224   1.084       .  S
C2220      C2221   1.419       .  A
C2220      N2225   1.435       .  S
C2221      C2222   1.405       .  A
C2222      C2223   1.404       .  A
C2222      H2226   1.084       .  S
C2223      N2227   1.437       .  S
N2225      H2228   1.045       .  S
N2225      H2229   1.037       .  S
N2227      H2230   1.046       .  S
N2227      H2231   1.046       .  S
H2232      N3102   1.046       .  S
C2236      C2237   1.420       .  A
C2236      C2241   1.404       .  A
C2237      C2238   1.401       .  A
C2237      N2242   1.439       .  S
C2238      C2239   1.401       .  A
C2238      H2243   1.084       .  S
C2239      C2244   1.490       .  S
C2239      C2240   1.412       .  A
C2240      C2241   1.410       .  A
C2240      N2245   1.437       .  S
C2241      H2246   1.084       .  S
N2242      H2262   1.043       .  S
N2242      H2263   1.045       .  S
C2244      C2247   1.406       .  A
C2244      C2251   1.410       .  A
N2245      H2260   1.046       .  S
N2245      H2261   1.045       .  S
C2247      C2248   1.411       .  A
C2247      H2252   1.084       .  S
C2248      C2249   1.411       .  A
C2248      N3138   1.436       .  S
C2249      C2250   1.405       .  A
C2250      C2251   1.404       .  A
C2250      H2254   1.084       .  S
C2251      N2255   1.438       .  S
N2253      C3133   1.436   1_545  S
N2253      H2256   1.045       .  S
N2253      H2257   1.044       .  S
N2255      H2258   1.046       .  S
N2255      H2259   1.046       .  S
C2264      C2265   1.413       .  A
C2264      C2269   1.400       .  A
C2265      C2266   1.407       .  A
C2265      N2270   1.439       .  S
C2266      C2267   1.403       .  A
C2266      H2271   1.084       .  S
C2267      C2272   1.489       .  S
C2267      C2268   1.412       .  A
C2268      C2269   1.408       .  A
C2268      N2273   1.437       .  S
N2270      H2290   1.041       .  S
N2270      H2291   1.046       .  S
C2272      C2275   1.405       .  A
C2272      C2279   1.408       .  A
N2273      H2289   1.046       .  S
C2275      C2276   1.410       .  A
C2275      H2280   1.084       .  S
C2276      C2277   1.413       .  A
C2276      N2281   1.436       .  S
C2277      C2278   1.409       .  A
C2278      C2279   1.406       .  A
C2278      H2282   1.083       .  S
C2279      N2283   1.438       .  S
N2281      H2284   1.046       .  S
N2281      H2285   1.043       .  S
N2283      H2286   1.046       .  S
N2283      H2287   1.046       .  S
C2292      C2293   1.422       .  A
C2292      C2297   1.404       .  A
C2293      C2294   1.401       .  A
C2293      N2298   1.435       .  S
C2294      C2295   1.401       .  A
C2294      H2299   1.084       .  S
C2295      C2300   1.499       .  S
C2295      C2296   1.416       .  A
C2296      C2297   1.414       .  A
C2296      N2301   1.437       .  S
C2297      H2302   1.084       .  S
N2298      H2318   1.039       .  S
N2298      H2319   1.045       .  S
C2300      C2303   1.407       .  A
C2300      C2307   1.415       .  A
N2301      H2316   1.045       .  S
N2301      H2317   1.046       .  S
C2303      C2304   1.410       .  A
C2303      H2308   1.083       .  S
C2304      C2305   1.409       .  A
C2304      N2309   1.437       .  S
C2305      C2306   1.404       .  A
C2306      C2307   1.408       .  A
C2306      H2310   1.084       .  S
C2307      N2311   1.438       .  S
N2309      H2312   1.045       .  S
N2309      H2313   1.045       .  S
N2311      H2314   1.046       .  S
N2311      H2315   1.045       .  S
C2320      C2321   1.406       .  A
C2320      C2325   1.404       .  A
C2321      C2322   1.396       .  A
C2321      N3211   1.431       .  S
C2322      C2323   1.399       .  A
C2322      H2327   1.084       .  S
C2323      C2328   1.473       .  S
C2323      C2324   1.409       .  A
C2324      C2325   1.405       .  A
C2324      N2329   1.437       .  S
C2325      H2330   1.083       .  S
N2326      C3206   1.431   1_545  S
N2326      H2346   1.045       .  S
N2326      H2347   1.046       .  S
C2328      C2331   1.401       .  A
C2328      C2335   1.406       .  A
N2329      H2344   1.046       .  S
N2329      H2345   1.046       .  S
C2331      C2332   1.406       .  A
C2331      H2336   1.084       .  S
C2332      C2333   1.416       .  A
C2332      N2337   1.438       .  S
C2333      C2334   1.404       .  A
C2334      C2335   1.398       .  A
C2334      H2338   1.083       .  S
C2335      N2339   1.438       .  S
N2337      H2340   1.046       .  S
N2337      H2341   1.046       .  S
N2339      H2342   1.046       .  S
N2339      H2343   1.046       .  S
C2348      C2349   1.417       .  A
C2348      C2353   1.405       .  A
C2349      C2350   1.408       .  A
C2349      N2354   1.438       .  S
C2350      C2351   1.402       .  A
C2350      H2355   1.084       .  S
C2351      C2356   1.487       .  S
C2351      C2352   1.410       .  A
C2352      C2353   1.405       .  A
C2352      N2357   1.438       .  S
C2353      H2358   1.083       .  S
N2354      H2374   1.046       .  S
N2354      H2375   1.046       .  S
C2356      C2359   1.404       .  A
C2356      C2363   1.410       .  A
N2357      H2372   1.046       .  S
N2357      H2373   1.046       .  S
C2359      C2360   1.401       .  A
C2359      H2364   1.084       .  S
C2360      C2361   1.417       .  A
C2360      N2365   1.438       .  S
C2361      C2362   1.404       .  A
C2362      C2363   1.405       .  A
C2362      H2366   1.084       .  S
C2363      N2367   1.438       .  S
N2365      H2368   1.045       .  S
N2367      H2370   1.046       .  S
N2367      H2371   1.046       .  S
C2376      C2377   1.414       .  A
C2376      C2381   1.405       .  A
C2377      C2378   1.402       .  A
C2377      N2382   1.438       .  S
C2378      C2379   1.400       .  A
C2378      H2383   1.084       .  S
C2379      C2384   1.476       .  S
C2379      C2380   1.408       .  A
C2380      C2381   1.403       .  A
C2380      N2385   1.438       .  S
C2381      H2386   1.084       .  S
N2382      H2402   1.046       .  S
N2382      H2403   1.046       .  S
C2384      C2387   1.402       .  A
C2384      C2391   1.411       .  A
N2385      H2400   1.046       .  S
N2385      H2401   1.046       .  S
C2387      C2388   1.398       .  A
C2387      H2392   1.084       .  S
C2388      C2389   1.404       .  A
C2389      C2390   1.401       .  A
C2390      C2391   1.403       .  A
C2390      H3279   1.084       .  S
C2391      N2395   1.437       .  S
N2393      H2396   1.046       .  S
N2393      H2397   1.045       .  S
H2394      C3275   1.084       .  S
N2395      H3283   1.046       .  S
N2395      H2399   1.045       .  S
H2398      N3280   1.046       .  S
C2404      C2405   1.414       .  A
C2404      C2409   1.410       .  A
C2405      C2406   1.399       .  A
C2405      N2410   1.427       .  S
C2406      C2407   1.394       .  A
C2406      H2411   1.084       .  S
C2407      C2412   1.475       .  S
C2407      C2408   1.407       .  A
C2408      C2409   1.409       .  A
C2408      N2413   1.437       .  S
C2409      H2414   1.083       .  S
N2410      H2430   1.045       .  S
N2410      H2431   1.046       .  S
C2412      C2415   1.400       .  A
C2412      C2419   1.408       .  A
N2413      H2428   1.046       .  S
N2413      H2429   1.045       .  S
C2415      C2416   1.404       .  A
C2415      H2420   1.084       .  S
C2416      C2417   1.414       .  A
C2416      N2421   1.438       .  S
C2417      C2418   1.405       .  A
C2418      C2419   1.406       .  A
C2418      H2422   1.084       .  S
C2419      N2423   1.438       .  S
N2421      H2424   1.046       .  S
N2421      H2425   1.046       .  S
N2423      H2426   1.046       .  S
N2423      H2427   1.045       .  S
C2432      C2433   1.422       .  A
C2432      C2437   1.405       .  A
C2433      C2434   1.404       .  A
C2433      N2438   1.436       .  S
C2434      C2435   1.401       .  A
C2434      H2439   1.084       .  S
C2435      C2440   1.479       .  S
C2435      C2436   1.406       .  A
C2436      C2437   1.402       .  A
C2436      N2441   1.438       .  S
C2437      H2442   1.084       .  S
N2438      H2458   1.041       .  S
N2438      H2459   1.045       .  S
C2440      C2443   1.402       .  A
N2441      H2456   1.046       .  S
N2441      H2457   1.045       .  S
C2443      H2448   1.084       .  S
C2444      C2445   1.412       .  A
C2444      N2449   1.438       .  S
C2445      C2446   1.405       .  A
C2446      C2447   1.406       .  A
C2446      H2450   1.084       .  S
C2447      N2451   1.438       .  S
N2449      H2452   1.046       .  S
N2449      H2453   1.046       .  S
N2451      H2454   1.046       .  S
N2451      H2455   1.045       .  S
C2460      C2461   1.406       .  A
C2460      C2465   1.397       .  A
C2461      C2462   1.408       .  A
C2461      N2466   1.436       .  S
C2462      C2463   1.406       .  A
C2462      H2467   1.083       .  S
C2463      C2468   1.484       .  S
C2463      C2464   1.411       .  A
C2464      C2465   1.398       .  A
C2464      N2469   1.439       .  S
C2465      H2470   1.079       .  S
N2466      H2486   1.045       .  S
N2466      H2487   1.045       .  S
C2468      C3356   1.404       .  A
C2468      C2475   1.412       .  A
N2469      H2484   1.046       .  S
N2469      H2485   1.046       .  S
C2471      C3353   1.404       .  A
C2471      C2472   1.402       .  A
C2471      H2476   1.084       .  S
C2472      C2473   1.412       .  A
C2472      N2477   1.439       .  S
C2473      C2474   1.403       .  A
C2474      C3360   1.405   1_545  A
C2474      H2478   1.084       .  S
C2475      C3359   1.405       .  A
C2475      N2479   1.438       .  S
N2477      H2480   1.046       .  S
N2477      H2481   1.046       .  S
N2479      H2482   1.046       .  S
N2479      H2483   1.046       .  S
C2488      C2489   1.410       .  A
C2488      C2493   1.402       .  A
C2489      C2490   1.398       .  A
C2489      N2494   1.435       .  S
C2490      C2491   1.398       .  A
C2490      H2495   1.084       .  S
C2491      C2496   1.476       .  S
C2491      C2492   1.411       .  A
C2492      C2493   1.405       .  A
C2492      N2497   1.438       .  S
C2493      H2498   1.084       .  S
N2494      H2514   1.044       .  S
N2494      H2515   1.046       .  S
C2496      C2499   1.397       .  A
C2496      C2503   1.409       .  A
N2497      H2512   1.046       .  S
N2497      H2513   1.046       .  S
C2499      C2500   1.402       .  A
C2499      H2504   1.084       .  S
C2500      C2501   1.422       .  A
C2500      N2505   1.439       .  S
C2501      C2502   1.406       .  A
C2502      C2503   1.402       .  A
C2502      H2506   1.083       .  S
C2503      N2507   1.438       .  S
N2505      H2508   1.046       .  S
N2505      H2509   1.046       .  S
N2507      H2510   1.046       .  S
N2507      H2511   1.046       .  S
C2516      C2517   1.414       .  A
C2516      C2521   1.411       .  A
C2517      N2522   1.437       .  S
C2518      C2519   1.402       .  A
C2518      H2523   1.084       .  S
C2519      C2524   1.475       .  S
C2520      C2521   1.401       .  A
C2520      N2525   1.439       .  S
C2521      H2526   1.083       .  S
N2522      H2542   1.046       .  S
N2522      H2543   1.046       .  S
C2524      C2527   1.401       .  A
C2524      C2531   1.406       .  A
N2525      H2540   1.046       .  S
N2525      H2541   1.046       .  S
C2527      C2528   1.398       .  A
C2527      H2532   1.084       .  S
C2528      C2529   1.419       .  A
C2528      N2533   1.438       .  S
C2529      C2530   1.402       .  A
C2530      C2531   1.399       .  A
C2530      H2534   1.082       .  S
C2531      N2535   1.438       .  S
N2533      H2536   1.045       .  S
N2533      H2537   1.042       .  S
N2535      H2538   1.046       .  S
N2535      H2539   1.046       .  S
C2544      C2545   1.418       .  A
C2544      C2549   1.409       .  A
C2545      C2546   1.410       .  A
C2545      N2550   1.438       .  S
C2546      C3432   1.402       .  A
C2546      H3436   1.084       .  S
C2547      C2552   1.476       .  S
C2547      C3431   1.402       .  A
C2547      C3433   1.403   1_545  A
C2548      C3432   1.403       .  A
C2548      C2549   1.400       .  A
C2548      N2553   1.439       .  S
C2549      H2554   1.083       .  S
N2550      H2570   1.046       .  S
N2550      H2571   1.046       .  S
H2551      C3431   1.084       .  S
C2552      C2555   1.400       .  A
C2552      C2559   1.407       .  A
N2553      H2568   1.045       .  S
N2553      H3454   1.046       .  S
C2555      C2556   1.403       .  A
C2555      H2560   1.084       .  S
C2556      C2557   1.411       .  A
C2556      N2561   1.435       .  S
C2557      C2558   1.404       .  A
C2558      C2559   1.406       .  A
C2558      H2562   1.084       .  S
C2559      N2563   1.437       .  S
N2561      H2564   1.045       .  S
N2561      H2565   1.042       .  S
N2563      H2566   1.046       .  S
N2563      H2567   1.046       .  S
H2569      N3438   1.046       .  S
C2572      C2573   1.409       .  A
C2572      C2577   1.408       .  A
C2573      C2574   1.408       .  A
C2573      N2578   1.431       .  S
C2574      C2575   1.404       .  A
C2574      H2579   1.084       .  S
C2575      C2580   1.486       .  S
C2575      C2576   1.408       .  A
C2576      C2577   1.407       .  A
C2576      N2581   1.438       .  S
C2577      H2582   1.083       .  S
N2578      H2598   1.045       .  S
N2578      H2599   1.045       .  S
C2580      C2583   1.403       .  A
C2580      C2587   1.406       .  A
N2581      H2596   1.046       .  S
N2581      H2597   1.044       .  S
C2583      C2584   1.413       .  A
C2583      H2588   1.084       .  S
C2584      C2585   1.414       .  A
C2584      N2589   1.435       .  S
C2585      C2586   1.411       .  A
C2586      C2587   1.406       .  A
C2586      H2590   1.082       .  S
C2587      N2591   1.438       .  S
N2589      H2592   1.045       .  S
N2589      H2593   1.041       .  S
N2591      H2594   1.046       .  S
N2591      H2595   1.044       .  S
C2600      C2601   1.417       .  A
C2600      C2605   1.397       .  A
C2601      C2602   1.407       .  A
C2601      N2606   1.438       .  S
C2602      C2603   1.412       .  A
C2602      H2607   1.081       .  S
C2603      C3493   1.517   1_545  S
C2603      C2604   1.421       .  A
C2604      C2605   1.405       .  A
C2604      N2609   1.432       .  S
C2605      H2610   1.082       .  S
N2606      H2626   1.043       .  S
N2606      H2627   1.045       .  S
C2608      C3488   1.518       .  S
C2608      C2611   1.410       .  A
C2608      C2615   1.426       .  A
N2609      H2624   1.046       .  S
N2609      H3510   1.046       .  S
C2611      C2612   1.403       .  A
C2611      H2616   1.079       .  S
C2612      C2613   1.406       .  A
C2612      N2617   1.436       .  S
C2613      C2614   1.399       .  A
C2614      C2615   1.415       .  A
C2614      H2618   1.083       .  S
C2615      N2619   1.437       .  S
N2617      H2620   1.046       .  S
N2617      H2621   1.046       .  S
N2619      H2622   1.046       .  S
N2619      H2623   1.046       .  S
H2625      N3494   1.046       .  S
C2628      C2629   1.413       .  A
C2628      C2633   1.404       .  A
C2629      C2630   1.409       .  A
C2629      N2634   1.438       .  S
C2630      C2631   1.402       .  A
C2630      H2635   1.084       .  S
C2631      C2632   1.413       .  A
C2632      C2633   1.413       .  A
C2632      N2637   1.437       .  S
C2633      H2638   1.083       .  S
N2634      H2654   1.045       .  S
N2634      H2655   1.045       .  S
C2636      C2639   1.400       .  A
C2636      C2643   1.414       .  A
N2637      H2652   1.046       .  S
N2637      H2653   1.046       .  S
C2639      C2640   1.408       .  A
C2639      H2644   1.084       .  S
C2640      C2641   1.417       .  A
C2640      N2645   1.436       .  S
C2641      C2642   1.403       .  A
C2642      C2643   1.414       .  A
C2642      H2646   1.083       .  S
C2643      N2647   1.437       .  S
N2645      H2648   1.045       .  S
N2645      H2649   1.044       .  S
N2647      H2650   1.045       .  S
N2647      H2651   1.044       .  S
C2656      H2657   1.112       .  S
C2656      C2662   1.518       .  S
C2656      C2661   1.520       .  S
C2656      C2660   1.523       .  S
C2658      H2659   1.109       .  S
C2658      C2664   1.557       .  S
C2658      C2663   1.554       .  S
C2658      C2665   1.565       .  S
C2660      C2663   1.374       .  D
C2660      C3414   1.479       .  S
C2661      C2664   1.373       .  D
C2661      C3442   1.483       .  S
C2662      C2665   1.380       .  D
C2662      C3373   1.482       .  S
C2663      C3526   1.502       .  S
C2664      C3485   1.491       .  S
C2665      C3470   1.508       .  S
C2666      H2667   1.110       .  S
C2666      C2672   1.547       .  S
C2666      C2671   1.554       .  S
C2666      C2670   1.552       .  S
C2668      H2669   1.109       .  S
C2668      C2674   1.528       .  S
C2668      C2673   1.536       .  S
C2668      C2675   1.527       .  S
C2670      C2673   1.383       .  D
C2670      C3457   1.497       .  S
C2671      C2674   1.377       .  D
C2671      C3513   1.495       .  S
C2672      C2675   1.373       .  D
C2672      C3498   1.494       .  S
C2673      C3289   1.501       .  S
C2674      C3317   1.493       .  S
C2675      C3345   1.481       .  S
Zn2676     O2680   1.961       .  S
Zn2676     O2681   2.017       .  S
Zn2676     O2685   2.027       .  S
Zn2676     O2692   2.045       .  S
Zn2677     O2680   1.956       .  S
Zn2677     O2682   2.001       .  S
Zn2677     O2684   1.999       .  S
Zn2677     O2688   2.036       .  S
Zn2678     O2680   1.961       .  S
Zn2678     O2683   2.018       .  S
Zn2678     O2686   2.000       .  S
Zn2678     O2689   2.022       .  S
Zn2679     O2680   1.926       .  S
Zn2679     O2687   1.970       .  S
Zn2679     O2690   1.981       .  S
Zn2679     O2691   1.973       .  S
O2681      C2693   1.275       .  A
O2682      C2694   1.273       .  A
O2683      C2695   1.273       .  A
O2684      C2693   1.272       .  A
O2685      C2695   1.275       .  A
O2686      C2694   1.271       .  A
O2687      C2696   1.267       .  A
O2688      C2697   1.273       .  A
O2689      C2696   1.275       .  A
O2690      C2697   1.269       .  A
O2691      C2698   1.269       .  A
O2692      C2698   1.277       .  A
C2693      C3261   1.478       .  S
C2694      C3218   1.477       .  S
C2695      C3233   1.487       .  S
C2696      C3386   1.485       .  S
C2697      C3429   1.489       .  S
C2698      C3401   1.486       .  S
C2699      H2700   1.112       .  S
C2699      C2705   1.523       .  S
C2701      H2702   1.109       .  S
C2701      C2708   1.550       .  S
C2703      C2706   1.373       .  D
C2703      C3205   1.479       .  S
C2704      C2707   1.373       .  D
C2704      C3274   1.474       .  S
C2705      C2708   1.375       .  D
C2705      C3246   1.486       .  S
C2706      C3190   1.490       .  S
C2707      C3134   1.493       .  S
C2708      C3149   1.484       .  S
C2709      H2710   1.110       .  S
C2709      C2715   1.553       .  S
C2709      C2714   1.557       .  S
C2709      C2713   1.553       .  S
C2711      H2712   1.111       .  S
C2711      C2717   1.523       .  S
C2711      C2716   1.525       .  S
C2711      C2718   1.527       .  S
C2713      C2716   1.375       .  D
C2713      C3121   1.490       .  S
C2714      C2717   1.378       .  D
C2714      C3162   1.501       .  S
C2715      C2718   1.376       .  D
C2715      C3177   1.501       .  S
C2716      C3106   1.487       .  S
C2717      C3078   1.487       .  S
C2718      C3050   1.485       .  S
C2719      H2720   1.112       .  S
C2719      C2725   1.521       .  S
C2719      C2724   1.522       .  S
C2719      C2723   1.525       .  S
C2721      H2722   1.111       .  S
C2721      C2727   1.557       .  S
C2721      C2726   1.549       .  S
C2721      C2728   1.548       .  S
C2723      C2726   1.378       .  D
C2723      C2897   1.486       .  S
C2724      C2727   1.380       .  D
C2724      C2925   1.486       .  S
C2725      C2728   1.368       .  D
C2725      C2869   1.474       .  S
C2726      C2994   1.492       .  S
C2727      C2953   1.498       .  S
C2728      C3009   1.490       .  S
C2729      H2730   1.110       .  S
C2729      C2734   1.558       .  S
C2731      C2737   1.528   1_445  S
C2733      C2736   1.369       .  D
C2733      C2966   1.490       .  S
C2734      C2737   1.385       .  D
C2734      C3022   1.502       .  S
C2735      C2738   1.369       .  D
C2735      C2981   1.487       .  S
C2736      C2854   1.476       .  S
C2737      C2813   1.493       .  S
C2738      C2785   1.478       .  S
Zn2739     O2743   1.964       .  S
Zn2739     O2744   2.037       .  S
Zn2739     O2748   2.021       .  S
Zn2739     O2755   2.022       .  S
Zn2740     O2743   1.931       .  S
Zn2740     O2745   1.979       .  S
Zn2740     O2747   1.985       .  S
Zn2740     O2751   1.995       .  S
Zn2741     O2743   1.965       .  S
Zn2741     O2746   2.017       .  S
Zn2741     O2749   2.046       .  S
Zn2741     O2752   2.013       .  S
Zn2742     O2743   1.964       .  S
Zn2742     O2750   2.002       .  S
Zn2742     O2753   2.034       .  S
Zn2742     O2754   2.009       .  S
O2744      C2756   1.275       .  A
O2745      C2757   1.270       .  A
O2746      C2758   1.273       .  A
O2747      C2756   1.271       .  A
O2748      C2758   1.273       .  A
O2749      C2757   1.276       .  A
O2750      C2759   1.272       .  A
O2751      C2760   1.271       .  A
O2752      C2759   1.274       .  A
O2753      C2760   1.274       .  A
O2754      C2761   1.273       .  A
O2755      C2761   1.275       .  A
C2756      C2826   1.489       .  S
C2757      C2841   1.483       .  S
C2758      C3330   1.479       .  S
C2759      C3358   1.474       .  S
C2760      C2798   1.493       .  S
C2761      C3302   1.479       .  S
Zn2762     O2767   2.026   1_554  S
Zn2762     O2778   2.031       .  S
Zn2763     O2774   2.035       .  S
Zn2764     O2766   1.954       .  S
Zn2764     O2772   2.009   1_554  S
Zn2764     O2775   2.025       .  S
Zn2765     O2776   1.992   1_455  S
O2767      C2779   1.276       .  A
O2768      C2780   1.275       .  A
O2769      C2781   1.271       .  A
O2770      C2779   1.274       .  A
O2771      C2781   1.276       .  A
O2772      C2780   1.272       .  A
O2773      C2782   1.272       .  A
O2774      C2783   1.275       .  A
O2775      C2782   1.274       .  A
O2776      C2783   1.270       .  A
O2777      C2784   1.272       .  A
O2778      C2784   1.275       .  A
C2779      C3065   1.490       .  S
C2780      C3037   1.491       .  S
C2781      C3093   1.488       .  S
C2782      C2882   1.488       .  S
C2783      C2938   1.476       .  S
C2784      C2910   1.477       .  S
C2785      C2786   1.407       .  A
C2785      C2790   1.401       .  A
C2786      C2787   1.402       .  A
C2786      N2791   1.431       .  S
C2787      C2788   1.402       .  A
C2787      H2792   1.084       .  S
C2788      C2793   1.476       .  S
C2788      C2789   1.407       .  A
C2789      C2790   1.404       .  A
C2789      N2794   1.437       .  S
C2790      H2795   1.084       .  S
N2791      H2811   1.046       .  S
N2791      H2812   1.045       .  S
C2793      C2796   1.401       .  A
C2793      C2800   1.403       .  A
N2794      H2809   1.046       .  S
N2794      H2810   1.046       .  S
C2796      C2797   1.408       .  A
C2796      H2801   1.084       .  S
C2797      C2798   1.419       .  A
C2797      N2802   1.438       .  S
C2798      C2799   1.411       .  A
C2799      C2800   1.402       .  A
C2799      H2803   1.083       .  S
C2800      N2804   1.438       .  S
N2802      H2805   1.046       .  S
N2802      H2806   1.045       .  S
N2804      H2807   1.045       .  S
N2804      H2808   1.046       .  S
C2813      C2814   1.420       .  A
C2813      C2818   1.404       .  A
C2814      C2815   1.404       .  A
C2814      N2819   1.437   1_655  S
C2815      C2816   1.404       .  A
C2815      H2820   1.084       .  S
C2816      C2821   1.483       .  S
C2816      C2817   1.406       .  A
C2817      C2818   1.399       .  A
C2817      N2822   1.438       .  S
C2818      H2823   1.079       .  S
N2819      H2839   1.041       .  S
N2819      H2840   1.045   1_455  S
C2821      C2824   1.403       .  A
C2821      C2828   1.406       .  A
N2822      H2837   1.046       .  S
N2822      H2838   1.046       .  S
C2824      C2825   1.407       .  A
C2824      H2829   1.084       .  S
C2825      C2826   1.416       .  A
C2825      N2830   1.438       .  S
C2826      C2827   1.409       .  A
C2827      C2828   1.401       .  A
C2827      H2831   1.083       .  S
C2828      N2832   1.436       .  S
N2830      H2833   1.046       .  S
N2830      H2834   1.046       .  S
N2832      H2835   1.046       .  S
N2832      H2836   1.045       .  S
C2841      C2842   1.414       .  A
C2841      C2846   1.407       .  A
C2842      C2843   1.409       .  A
C2842      N2847   1.437       .  S
C2843      C2844   1.403       .  A
C2843      H2848   1.084       .  S
C2844      C2849   1.479       .  S
C2844      C2845   1.406       .  A
C2845      C2846   1.400       .  A
C2845      N2850   1.439       .  S
C2846      H2851   1.084       .  S
N2847      H2867   1.045       .  S
N2847      H2868   1.046       .  S
C2849      C2852   1.401       .  A
C2849      C2856   1.409       .  A
N2850      H2865   1.045       .  S
N2850      H2866   1.046       .  S
C2852      C2853   1.397       .  A
C2852      H2857   1.084       .  S
C2853      C2854   1.416       .  A
C2854      C2855   1.401       .  A
C2855      C2856   1.404       .  A
C2856      N2860   1.437       .  S
N2858      H2861   1.046       .  S
N2858      H2862   1.042       .  S
N2860      H2864   1.046       .  S
C2869      C2870   1.407       .  A
C2869      C2874   1.401       .  A
C2870      C2871   1.402       .  A
C2870      N2875   1.436       .  S
C2871      C2872   1.400       .  A
C2871      H2876   1.084       .  S
C2872      C2877   1.472       .  S
C2872      C2873   1.408       .  A
C2873      C2874   1.403       .  A
C2873      N2878   1.437       .  S
C2874      H2879   1.083       .  S
N2875      H2895   1.044       .  S
N2875      H2896   1.045       .  S
C2877      C2880   1.399       .  A
C2877      C2884   1.404       .  A
N2878      H2893   1.046       .  S
N2878      H2894   1.045       .  S
C2880      C2881   1.406       .  A
C2880      H2885   1.084       .  S
C2881      C2882   1.418       .  A
C2881      N2886   1.438       .  S
C2882      C2883   1.410       .  A
C2883      C2884   1.403       .  A
C2883      H2887   1.083       .  S
C2884      N2888   1.438       .  S
N2886      H2889   1.046       .  S
N2886      H2890   1.045       .  S
N2888      H2891   1.046       .  S
N2888      H2892   1.046       .  S
C2897      C2898   1.420       .  A
C2897      C2902   1.406       .  A
C2898      C2899   1.399       .  A
C2898      N2903   1.436       .  S
C2899      C2900   1.399       .  A
C2899      H2904   1.084       .  S
C2900      C2905   1.474       .  S
C2900      C2901   1.405       .  A
C2901      C2902   1.404       .  A
C2901      N2906   1.437       .  S
C2902      H2907   1.084       .  S
N2903      H2923   1.038       .  S
N2903      H2924   1.046       .  S
C2905      C2908   1.398       .  A
C2905      C2912   1.408       .  A
N2906      H2921   1.046       .  S
N2906      H2922   1.046       .  S
C2908      C2909   1.403       .  A
C2908      H2913   1.084       .  S
C2909      C2910   1.414       .  A
C2909      N2914   1.438       .  S
C2910      C2911   1.404       .  A
C2911      C2912   1.407       .  A
C2911      H2915   1.084       .  S
C2912      N2916   1.437       .  S
N2914      H2917   1.046       .  S
N2914      H2918   1.046       .  S
N2916      H2919   1.046       .  S
N2916      H2920   1.046       .  S
C2925      C2926   1.419       .  A
C2925      C2930   1.406       .  A
C2926      C2927   1.400       .  A
C2926      N2931   1.436       .  S
C2927      C2928   1.400       .  A
C2927      H2932   1.084       .  S
C2928      C2933   1.474       .  S
C2928      C2929   1.405       .  A
C2929      C2930   1.402       .  A
C2929      N2934   1.438       .  S
C2930      H2935   1.084       .  S
N2931      H2951   1.039       .  S
N2931      H2952   1.046       .  S
C2933      C2936   1.398       .  A
C2933      C2940   1.409       .  A
N2934      H2949   1.046       .  S
N2934      H2950   1.045       .  S
C2936      C2937   1.403       .  A
C2936      H2941   1.084       .  S
C2937      C2938   1.414       .  A
C2938      C2939   1.403       .  A
C2939      C2940   1.406       .  A
C2939      H2943   1.084       .  S
C2940      N2944   1.438       .  S
N2942      H2945   1.046       .  S
N2942      H2946   1.046       .  S
N2944      H2947   1.046       .  S
N2944      H2948   1.045       .  S
C2953      C2954   1.421       .  A
C2953      C2958   1.405       .  A
C2954      C2955   1.398       .  A
C2954      N2959   1.436       .  S
C2955      C2956   1.401       .  A
C2955      H2960   1.084       .  S
C2956      C2961   1.496       .  S
C2956      C2957   1.415       .  A
C2957      C2958   1.412       .  A
C2957      N2962   1.437       .  S
C2958      H2963   1.082       .  S
N2959      H2979   1.039       .  S
N2959      H2980   1.045       .  S
C2961      C2964   1.406       .  A
C2961      C2968   1.415       .  A
N2962      H2977   1.046       .  S
N2962      H2978   1.046       .  S
C2964      C2965   1.408       .  A
C2964      H2969   1.083       .  S
C2965      C2966   1.408       .  A
C2966      C2967   1.401       .  A
C2967      C2968   1.407       .  A
C2968      N2972   1.438       .  S
N2970      H2973   1.046       .  S
N2970      H2974   1.045       .  S
N2972      H2976   1.046       .  S
C2981      C2982   1.409       .  A
C2981      C2986   1.400       .  A
C2982      C2983   1.408       .  A
C2982      N2987   1.435       .  S
C2983      C2984   1.407       .  A
C2983      H2988   1.083       .  S
C2984      C2989   1.497       .  S
C2984      C2985   1.415       .  A
C2985      C2986   1.405       .  A
C2985      N2990   1.438       .  S
C2986      H2991   1.079       .  S
C2989      C2992   1.404       .  A
C2989      C2996   1.416       .  A
N2990      H3005   1.046       .  S
N2990      H3006   1.046       .  S
C2992      C2993   1.399       .  A
C2992      H2997   1.083       .  S
C2993      C2994   1.418       .  A
C2993      N2998   1.439       .  S
C2994      C2995   1.403       .  A
C2995      C2996   1.410       .  A
C2995      H2999   1.084       .  S
C2996      N3000   1.438       .  S
N2998      H3001   1.046       .  S
N2998      H3002   1.043       .  S
N3000      H3003   1.046       .  S
N3000      H3004   1.046       .  S
C3009      C3010   1.418       .  A
C3009      C3014   1.403       .  A
C3010      C3011   1.405       .  A
C3010      N3015   1.437       .  S
C3011      C3012   1.405       .  A
C3011      H3016   1.084       .  S
C3012      C3017   1.495       .  S
C3012      C3013   1.411       .  A
C3013      C3014   1.406       .  A
C3013      N3018   1.432       .  S
C3014      H3019   1.083       .  S
N3015      H3035   1.041       .  S
N3015      H3036   1.046       .  S
C3017      C3020   1.407       .  A
C3017      C3024   1.408       .  A
N3018      H3033   1.046       .  S
N3018      H3034   1.046       .  S
C3020      C3021   1.410       .  A
C3020      H3025   1.084       .  S
C3021      C3022   1.411       .  A
C3021      N3026   1.430   1_655  S
C3022      C3023   1.407       .  A
C3023      C3024   1.403       .  A
C3023      H3027   1.083       .  S
C3024      N3028   1.430       .  S
N3026      H3029   1.045       .  S
N3026      H3030   1.045   1_455  S
N3028      H3031   1.043       .  S
N3028      H3032   1.045       .  S
C3037      C3038   1.420       .  A
C3037      C3042   1.409       .  A
C3038      C3039   1.405       .  A
C3038      N3043   1.438       .  S
C3039      C3040   1.400       .  A
C3039      H3044   1.084       .  S
C3040      C3045   1.481       .  S
C3040      C3041   1.407       .  A
C3041      C3042   1.403       .  A
C3041      N3046   1.438       .  S
C3042      H3047   1.083       .  S
N3043      H3063   1.046       .  S
N3043      H3064   1.046       .  S
C3045      C3048   1.402       .  A
C3045      C3052   1.410       .  A
N3046      H3061   1.046   1_565  S
N3046      H3062   1.046       .  S
C3048      C3049   1.401       .  A
C3048      H3053   1.084       .  S
C3049      C3050   1.411       .  A
C3049      N3054   1.437       .  S
C3050      C3051   1.404       .  A
C3051      C3052   1.403       .  A
C3051      H3055   1.083       .  S
C3052      N3056   1.438       .  S
N3054      H3057   1.045       .  S
N3054      H3058   1.044       .  S
N3056      H3059   1.046       .  S
N3056      H3060   1.046       .  S
C3065      C3066   1.418       .  A
C3065      C3070   1.407       .  A
C3066      C3067   1.407       .  A
C3066      N3071   1.438       .  S
C3067      C3068   1.401       .  A
C3067      H3072   1.084       .  S
C3068      C3073   1.484       .  S
C3068      C3069   1.408       .  A
C3069      C3070   1.405       .  A
C3069      N3074   1.438       .  S
C3070      H3075   1.083       .  S
C3073      C3076   1.402       .  A
C3073      C3080   1.411       .  A
N3074      H3089   1.046       .  S
N3074      H3090   1.046       .  S
C3076      C3077   1.404       .  A
C3076      H3081   1.084       .  S
C3077      C3078   1.410       .  A
C3077      N3082   1.437       .  S
C3078      C3079   1.404       .  A
C3079      C3080   1.406       .  A
C3079      H3083   1.084       .  S
C3080      N3084   1.437       .  S
N3082      H3085   1.045       .  S
N3082      H3086   1.045       .  S
N3084      H3087   1.046       .  S
N3084      H3088   1.046       .  S
C3093      C3094   1.419       .  A
C3093      C3098   1.406       .  A
C3094      C3095   1.406       .  A
C3094      N3099   1.438       .  S
C3095      C3096   1.399       .  A
C3095      H3100   1.084       .  S
C3096      C3101   1.482       .  S
C3096      C3097   1.410       .  A
C3097      C3098   1.404       .  A
C3097      N3102   1.438       .  S
C3098      H3103   1.083       .  S
C3101      C3104   1.400       .  A
C3101      C3108   1.409       .  A
N3102      H3118   1.046       .  S
C3104      C3105   1.397       .  A
C3104      H3109   1.084       .  S
C3105      C3106   1.419       .  A
C3105      N3110   1.435       .  S
C3106      C3107   1.405       .  A
C3107      C3108   1.404       .  A
C3107      H3111   1.084       .  S
C3108      N3112   1.437       .  S
N3110      H3113   1.045       .  S
N3110      H3114   1.037       .  S
N3112      H3115   1.046       .  S
N3112      H3116   1.046       .  S
C3121      C3122   1.420       .  A
C3121      C3126   1.404       .  A
C3122      C3123   1.401       .  A
C3122      N3127   1.439       .  S
C3123      C3124   1.401       .  A
C3123      H3128   1.084       .  S
C3124      C3129   1.490       .  S
C3124      C3125   1.412       .  A
C3125      C3126   1.410       .  A
C3125      N3130   1.437       .  S
C3126      H3131   1.084       .  S
N3127      H3147   1.043       .  S
N3127      H3148   1.045       .  S
C3129      C3132   1.406       .  A
C3129      C3136   1.410       .  A
N3130      H3145   1.046       .  S
N3130      H3146   1.045       .  S
C3132      C3133   1.411       .  A
C3132      H3137   1.084       .  S
C3133      C3134   1.411       .  A
C3134      C3135   1.405       .  A
C3135      C3136   1.404       .  A
C3135      H3139   1.084       .  S
C3136      N3140   1.438       .  S
N3138      H3141   1.045       .  S
N3138      H3142   1.044       .  S
N3140      H3143   1.046       .  S
N3140      H3144   1.046       .  S
C3149      C3150   1.413       .  A
C3149      C3154   1.400       .  A
C3150      C3151   1.407       .  A
C3150      N3155   1.439       .  S
C3151      C3152   1.403       .  A
C3151      H3156   1.084       .  S
C3152      C3157   1.489       .  S
C3152      C3153   1.412       .  A
C3153      C3154   1.407       .  A
C3153      N3158   1.437       .  S
N3155      H3175   1.041       .  S
N3155      H3176   1.046       .  S
C3157      C3160   1.405       .  A
C3157      C3164   1.408       .  A
N3158      H3174   1.046       .  S
C3160      C3161   1.410       .  A
C3160      H3165   1.084       .  S
C3161      C3162   1.412       .  A
C3161      N3166   1.436       .  S
C3162      C3163   1.409       .  A
C3163      C3164   1.406       .  A
C3163      H3167   1.083       .  S
C3164      N3168   1.438       .  S
N3166      H3169   1.046       .  S
N3166      H3170   1.043       .  S
N3168      H3171   1.046       .  S
N3168      H3172   1.046       .  S
C3177      C3178   1.422       .  A
C3177      C3182   1.404       .  A
C3178      C3179   1.401       .  A
C3178      N3183   1.435       .  S
C3179      C3180   1.401       .  A
C3179      H3184   1.084       .  S
C3180      C3185   1.499       .  S
C3180      C3181   1.416       .  A
C3181      C3182   1.414       .  A
C3181      N3186   1.437       .  S
C3182      H3187   1.084       .  S
N3183      H3203   1.039       .  S
N3183      H3204   1.045       .  S
C3185      C3188   1.408       .  A
C3185      C3192   1.415       .  A
N3186      H3201   1.045       .  S
N3186      H3202   1.046       .  S
C3188      C3189   1.410       .  A
C3188      H3193   1.083       .  S
C3189      C3190   1.409       .  A
C3189      N3194   1.437       .  S
C3190      C3191   1.403       .  A
C3191      C3192   1.408       .  A
C3191      H3195   1.084   1_565  S
C3192      N3196   1.438       .  S
N3194      H3197   1.045       .  S
N3194      H3198   1.045       .  S
N3196      H3199   1.046   1_565  S
N3196      H3200   1.045       .  S
C3205      C3206   1.406       .  A
C3205      C3210   1.404       .  A
C3206      C3207   1.396       .  A
C3207      C3208   1.400       .  A
C3207      H3212   1.084       .  S
C3208      C3213   1.473       .  S
C3208      C3209   1.409       .  A
C3209      C3210   1.405       .  A
C3209      N3214   1.437       .  S
C3210      H3215   1.083       .  S
N3211      H3231   1.045       .  S
N3211      H3232   1.046       .  S
C3213      C3216   1.401       .  A
C3213      C3220   1.406       .  A
N3214      H3229   1.046       .  S
N3214      H3230   1.046       .  S
C3216      C3217   1.406       .  A
C3216      H3221   1.084       .  S
C3217      C3218   1.415       .  A
C3217      N3222   1.438       .  S
C3218      C3219   1.404       .  A
C3219      C3220   1.398       .  A
C3219      H3223   1.083       .  S
C3220      N3224   1.438       .  S
N3222      H3225   1.046       .  S
N3222      H3226   1.046       .  S
N3224      H3227   1.046       .  S
N3224      H3228   1.046       .  S
C3233      C3234   1.417       .  A
C3233      C3238   1.405       .  A
C3234      C3235   1.408       .  A
C3234      N3239   1.438       .  S
C3235      C3236   1.402       .  A
C3235      H3240   1.084       .  S
C3236      C3241   1.487       .  S
C3236      C3237   1.411       .  A
C3237      C3238   1.405       .  A
C3237      N3242   1.438       .  S
C3238      H3243   1.083       .  S
N3239      H3259   1.046       .  S
N3239      H3260   1.046       .  S
C3241      C3244   1.404       .  A
C3241      C3248   1.410       .  A
N3242      H3257   1.046       .  S
N3242      H3258   1.046       .  S
C3244      C3245   1.401       .  A
C3244      H3249   1.084       .  S
C3245      C3246   1.417       .  A
C3245      N3250   1.438       .  S
C3246      C3247   1.404       .  A
C3247      C3248   1.405       .  A
C3247      H3251   1.084       .  S
C3248      N3252   1.438       .  S
N3250      H3253   1.045       .  S
N3252      H3255   1.046       .  S
N3252      H3256   1.046       .  S
C3261      C3262   1.414       .  A
C3261      C3266   1.406       .  A
C3262      C3263   1.402       .  A
C3262      N3267   1.438       .  S
C3263      C3264   1.400       .  A
C3263      H3268   1.084       .  S
C3264      C3269   1.476       .  S
C3264      C3265   1.408       .  A
C3265      C3266   1.403       .  A
C3265      N3270   1.438       .  S
C3266      H3271   1.084       .  S
N3267      H3287   1.046       .  S
N3267      H3288   1.046       .  S
C3269      C3272   1.402       .  A
C3269      C3276   1.411       .  A
N3270      H3285   1.046       .  S
N3270      H3286   1.046       .  S
C3272      C3273   1.398       .  A
C3272      H3277   1.084       .  S
C3273      C3274   1.404       .  A
C3274      C3275   1.401       .  A
C3275      C3276   1.403       .  A
C3276      N3280   1.437       .  S
N3278      H3281   1.046       .  S
N3278      H3282   1.045       .  S
N3280      H3284   1.045       .  S
C3289      C3290   1.414       .  A
C3289      C3294   1.410       .  A
C3290      C3291   1.399       .  A
C3290      N3295   1.427       .  S
C3291      C3292   1.394       .  A
C3291      H3296   1.084       .  S
C3292      C3297   1.475       .  S
C3292      C3293   1.407       .  A
C3293      C3294   1.409       .  A
C3293      N3298   1.437       .  S
C3294      H3299   1.083       .  S
N3295      H3315   1.045       .  S
N3295      H3316   1.046       .  S
C3297      C3300   1.400       .  A
C3297      C3304   1.408       .  A
N3298      H3313   1.046       .  S
N3298      H3314   1.045       .  S
C3300      C3301   1.404       .  A
C3300      H3305   1.084       .  S
C3301      C3302   1.414       .  A
C3301      N3306   1.438       .  S
C3302      C3303   1.405       .  A
C3303      C3304   1.406       .  A
C3303      H3307   1.084       .  S
C3304      N3308   1.438       .  S
N3306      H3309   1.046       .  S
N3306      H3310   1.046       .  S
N3308      H3311   1.046       .  S
N3308      H3312   1.045       .  S
C3317      C3318   1.422       .  A
C3317      C3322   1.405       .  A
C3318      C3319   1.404       .  A
C3318      N3323   1.436       .  S
C3319      C3320   1.401       .  A
C3319      H3324   1.084       .  S
C3320      C3325   1.479       .  S
C3320      C3321   1.406       .  A
C3321      C3322   1.402       .  A
C3321      N3326   1.438       .  S
C3322      H3327   1.084       .  S
N3323      H3343   1.041       .  S
N3323      H3344   1.045       .  S
C3325      C3328   1.402       .  A
N3326      H3341   1.046       .  S
N3326      H3342   1.045       .  S
C3328      H3333   1.084       .  S
C3329      C3330   1.412       .  A
C3329      N3334   1.438       .  S
C3330      C3331   1.405       .  A
C3331      C3332   1.406       .  A
C3331      H3335   1.084       .  S
C3332      N3336   1.438       .  S
N3334      H3337   1.046   1_655  S
N3334      H3338   1.046       .  S
N3336      H3339   1.046       .  S
N3336      H3340   1.045       .  S
C3345      C3346   1.406       .  A
C3345      C3350   1.397       .  A
C3346      C3347   1.408       .  A
C3346      N3351   1.436       .  S
C3347      C3348   1.406       .  A
C3347      H3352   1.083       .  S
C3348      C3353   1.484   1_565  S
C3348      C3349   1.411       .  A
C3349      C3350   1.398       .  A
C3349      N3354   1.439       .  S
C3350      H3355   1.079       .  S
N3351      H3371   1.045       .  S
N3351      H3372   1.045       .  S
C3353      C3360   1.412   1_545  A
N3354      H3369   1.046       .  S
N3354      H3370   1.046       .  S
C3356      C3357   1.402       .  A
C3356      H3361   1.084       .  S
C3357      C3358   1.412       .  A
C3357      N3362   1.439       .  S
C3358      C3359   1.403       .  A
C3359      H3363   1.084       .  S
C3360      N3364   1.438       .  S
N3362      H3365   1.046       .  S
N3362      H3366   1.046       .  S
N3364      H3367   1.046       .  S
N3364      H3368   1.046       .  S
C3373      C3374   1.410       .  A
C3373      C3378   1.402       .  A
C3374      C3375   1.398       .  A
C3374      N3379   1.435       .  S
C3375      C3376   1.398       .  A
C3375      H3380   1.084       .  S
C3376      C3381   1.476       .  S
C3376      C3377   1.412       .  A
C3377      C3378   1.405       .  A
C3377      N3382   1.438       .  S
C3378      H3383   1.084       .  S
N3379      H3399   1.044       .  S
N3379      H3400   1.046       .  S
C3381      C3384   1.397       .  A
C3381      C3388   1.409       .  A
N3382      H3397   1.046       .  S
N3382      H3398   1.046       .  S
C3384      C3385   1.402       .  A
C3384      H3389   1.084       .  S
C3385      C3386   1.422       .  A
C3385      N3390   1.439       .  S
C3386      C3387   1.406       .  A
C3387      C3388   1.402       .  A
C3387      H3391   1.083       .  S
C3388      N3392   1.438       .  S
N3390      H3393   1.046       .  S
N3390      H3394   1.046       .  S
N3392      H3395   1.046       .  S
N3392      H3396   1.046       .  S
C3401      C3402   1.414       .  A
C3401      C3406   1.411       .  A
C3402      N3407   1.437       .  S
C3403      C3404   1.402       .  A
C3403      H3408   1.084       .  S
C3404      C3409   1.475       .  S
C3405      C3406   1.400       .  A
C3405      N3410   1.439       .  S
C3406      H3411   1.083       .  S
N3407      H3427   1.046       .  S
N3407      H3428   1.046       .  S
C3409      C3412   1.401       .  A
C3409      C3416   1.406       .  A
N3410      H3425   1.046       .  S
N3410      H3426   1.046       .  S
C3412      C3413   1.398       .  A
C3412      H3417   1.084       .  S
C3413      C3414   1.419       .  A
C3413      N3418   1.438       .  S
C3414      C3415   1.402       .  A
C3415      C3416   1.399       .  A
C3415      H3419   1.082       .  S
C3416      N3420   1.438       .  S
N3418      H3421   1.045       .  S
N3418      H3422   1.042       .  S
N3420      H3423   1.046       .  S
N3420      H3424   1.046       .  S
C3429      C3430   1.418       .  A
C3429      C3434   1.409       .  A
C3430      C3431   1.410   1_565  A
C3430      N3435   1.438       .  S
C3432      C3437   1.476       .  S
C3433      C3434   1.400       .  A
C3433      N3438   1.439       .  S
C3434      H3439   1.083       .  S
N3435      H3455   1.046       .  S
N3435      H3456   1.046   1_565  S
C3437      C3440   1.400       .  A
C3437      C3444   1.407       .  A
N3438      H3453   1.045       .  S
C3440      C3441   1.403       .  A
C3440      H3445   1.084       .  S
C3441      C3442   1.411       .  A
C3441      N3446   1.435       .  S
C3442      C3443   1.404       .  A
C3443      C3444   1.406       .  A
C3443      H3447   1.084       .  S
C3444      N3448   1.437       .  S
N3446      H3449   1.045       .  S
N3446      H3450   1.042       .  S
N3448      H3451   1.046       .  S
N3448      H3452   1.046       .  S
C3457      C3458   1.409       .  A
C3457      C3462   1.408       .  A
C3458      C3459   1.408       .  A
C3458      N3463   1.431       .  S
C3459      C3460   1.404       .  A
C3459      H3464   1.084       .  S
C3460      C3465   1.486       .  S
C3460      C3461   1.408       .  A
C3461      C3462   1.407       .  A
C3461      N3466   1.438       .  S
C3462      H3467   1.083       .  S
N3463      H3483   1.045       .  S
N3463      H3484   1.045       .  S
C3465      C3468   1.403       .  A
C3465      C3472   1.406       .  A
N3466      H3481   1.046       .  S
N3466      H3482   1.044       .  S
C3468      C3469   1.413       .  A
C3468      H3473   1.084       .  S
C3469      C3470   1.415       .  A
C3469      N3474   1.434       .  S
C3470      C3471   1.411       .  A
C3471      C3472   1.406       .  A
C3471      H3475   1.082       .  S
C3472      N3476   1.438       .  S
N3474      H3477   1.045       .  S
N3474      H3478   1.041       .  S
N3476      H3479   1.046       .  S
N3476      H3480   1.044       .  S
C3485      C3486   1.417       .  A
C3485      C3490   1.397       .  A
C3486      C3487   1.407       .  A
C3486      N3491   1.438       .  S
C3487      C3488   1.412       .  A
C3487      H3492   1.081       .  S
C3488      C3489   1.421       .  A
C3489      C3490   1.405       .  A
C3489      N3494   1.432       .  S
C3490      H3495   1.082       .  S
N3491      H3511   1.043       .  S
N3491      H3512   1.045       .  S
C3493      C3496   1.410       .  A
C3493      C3500   1.426       .  A
N3494      H3509   1.046       .  S
C3496      C3497   1.403       .  A
C3496      H3501   1.079       .  S
C3497      C3498   1.406       .  A
C3497      N3502   1.436       .  S
C3498      C3499   1.399       .  A
C3499      C3500   1.415       .  A
C3499      H3503   1.083       .  S
C3500      N3504   1.437       .  S
N3502      H3505   1.046       .  S
N3502      H3506   1.046       .  S
N3504      H3507   1.046       .  S
N3504      H3508   1.046       .  S
C3513      C3514   1.413       .  A
C3513      C3518   1.404       .  A
C3514      C3515   1.409       .  A
C3514      N3519   1.438       .  S
C3515      C3516   1.402       .  A
C3515      H3520   1.084       .  S
C3516      C3517   1.413       .  A
C3517      C3518   1.413       .  A
C3517      N3522   1.437       .  S
C3518      H3523   1.083       .  S
N3519      H3539   1.045       .  S
N3519      H3540   1.045       .  S
C3521      C3524   1.400       .  A
C3521      C3528   1.414       .  A
N3522      H3537   1.046       .  S
N3522      H3538   1.046       .  S
C3524      C3525   1.408       .  A
C3524      H3529   1.084       .  S
C3525      C3526   1.417       .  A
C3525      N3530   1.436       .  S
C3526      C3527   1.403       .  A
C3527      C3528   1.413       .  A
C3527      H3531   1.083       .  S
C3528      N3532   1.437       .  S
N3530      H3533   1.045       .  S
N3530      H3534   1.044       .  S
N3532      H3535   1.045       .  S
N3532      H3536   1.044       .  S
