geometry optimzed in LAMMPS
_audit_creation_date              2020-11-30 
_audit_creation_method            'lammps2cif' 
_symmetry_space_group_name_H-M    'P1' 
_symmetry_Int_Tables_number       1 
_symmetry_cell_setting            triclinic 
loop_ 
_symmetry_equiv_pos_as_xyz 
  x,y,z 
_cell_length_a                    46.81904269 
_cell_length_b                    46.81065395261926 
_cell_length_c                    40.68588143401321 
_cell_angle_alpha                 90.05280989487831 
_cell_angle_beta                  90.1553111713708 
_cell_angle_gamma                 91.01043280663376 
loop_ 
_atom_site_label 
_atom_site_type_symbol 
_atom_site_fract_x 
_atom_site_fract_y 
_atom_site_fract_z 
_atom_site_charge 
O1          O  0.99623577  0.41861788  0.44931745    -0.74500
O2          O  0.00118119  0.45345677  0.41031053    -0.53500
C3          C  0.49738648  0.42785453  0.41874558     0.79200
O4          O  0.41986121  0.50053861  0.05740786    -0.59100
O5          O  0.45398796  0.49524041  0.09707260    -0.52200
C6          C  0.42807404  0.49872173  0.08751599     0.71200
O7          O  0.42035926  0.98863811  0.44805019    -0.73700
O8          O  0.45491622  0.99625709  0.40932707    -0.54300
C9          C  0.42958396  0.49291632  0.41788586     0.77200
O10         O  0.50684961  0.41858284  0.05906811    -0.58800
O11         O  0.50066777  0.45315277  0.09797229    -0.52000
C12         C  0.50464258  0.42716305  0.08903209     0.73800
Zr13       Zr  0.00223307  0.43839321  0.50454506     2.54700
O14         O  0.46629744  0.39932837  0.50908250    -0.79400
O15         O  0.04151566  0.40518150  0.00038645    -0.92800
Zr16       Zr  0.43945378  0.99451871  0.50347420     2.64700
O17         O  0.40630252  0.45490780  0.50661804    -0.97800
O18         O  0.39895966  0.02419518  0.99679513    -0.79800
O19         O  0.47082816  0.46654472  0.47176110    -0.83200
O20         O  0.47032219  0.46543270  0.03580022    -2.17900
O21         O  0.07878125  0.50481609  0.05957192    -0.66600
O22         O  0.04403230  0.49797687  0.09824785    -0.51200
C23         C  0.06948879  0.00223399  0.09030857     0.72200
O24         O  0.99285648  0.07728033  0.44880910    -0.59500
O25         O  0.99737860  0.04256407  0.40974198    -0.51500
C26         C  0.99415824  0.06865498  0.41879593     0.74000
O27         O  0.49052197  0.07709003  0.06025153    -0.70900
O28         O  0.49689073  0.04235494  0.09886678    -0.49600
C29         C  0.99314547  0.06863515  0.08958558     0.75400
O30         O  0.07928676  0.99842465  0.44960411    -0.66200
O31         O  0.04443968  0.99985687  0.41021682    -0.53400
C32         C  0.07069437  0.99845047  0.41951690     0.73700
Zr33       Zr  0.05893169  0.50236517  0.00428752     2.77500
O34         O  0.09015398  0.04409001  0.50115052    -0.97000
O35         O  0.09775746  0.46864232  0.00850923    -0.77800
Zr36       Zr  0.49574007  0.05759008  0.00480455     2.70100
O37         O  0.03394654  0.09369450  0.00502396    -0.79000
O38         O  0.45855191  0.09276137  0.50161326    -0.98100
Zr39       Zr  0.99949813  0.99813911  0.44036227     2.21500
Zr40       Zr  0.49908607  0.49772558  0.06775115     2.11100
O41         O  0.02759582  0.03020760  0.03677141    -2.46800
O42         O  0.02820143  0.03062876  0.47189906    -0.78800
O43         O  0.03113608  0.46983313  0.03616871    -0.71000
O44         O  0.46761059  0.02649968  0.47161265    -2.32000
O45         O  0.03130611  0.46964465  0.47268900    -2.28200
O46         O  0.46698526  0.02571178  0.03617976    -0.72800
H47         H  0.45901358  0.45297444  0.04971590     0.79200
H48         H  0.45529687  0.03734465  0.45741285     0.80300
H49         H  0.03854465  0.04282616  0.05098824     0.82500
H50         H  0.04346021  0.45832534  0.45880511     0.80100
H51         H  0.41150484  0.04682681  0.48927108     0.43200
H52         H  0.44439096  0.08692817  0.01945143     0.42100
H53         H  0.04486463  0.09067457  0.48445545     0.41800
H54         H  0.08597666  0.05542251  0.01980649     0.39700
H55         H  0.08844871  0.45069304  0.01613682     0.42900
H56         H  0.04824702  0.40731744  0.47635296     0.37700
H57         H  0.44762311  0.40890242  0.50963947     0.43800
H58         H  0.38981256  0.45884683  0.00764751     0.40200
H59         H  0.11001874  0.03551741  0.00685508     0.45100
H60         H  0.03242032  0.38615513  0.50019922     0.43800
H61         H  0.38747695  0.46336444  0.50200575     0.44000
H62         H  0.46706643  0.11064552  0.01030265     0.44300
C63         C  0.49829885  0.27532784  0.27088792     0.03000
C64         C  0.50241253  0.27433024  0.23645130     0.03000
C65         C  0.50166964  0.24758123  0.22067064    -0.17500
C66         C  0.49659023  0.22178939  0.23764038     0.03000
C67         C  0.49404218  0.22262601  0.27239643     0.03000
C68         C  0.49495053  0.24948843  0.28818154    -0.17500
H69         H  0.49329843  0.25049258  0.31469325     0.05000
H70         H  0.50402612  0.24686978  0.19421697     0.05000
C71         C  0.27634704  0.49391783  0.27005666     0.03000
C72         C  0.27597353  0.49792437  0.23548688     0.03000
C73         C  0.24954139  0.50069769  0.21949167    -0.17500
C74         C  0.22344095  0.49882497  0.23640012     0.03000
C75         C  0.22367654  0.49475464  0.27094071     0.03000
C76         C  0.25015488  0.49185433  0.28695625    -0.17500
H77         H  0.25042544  0.48910254  0.31341647     0.05000
H78         H  0.24922228  0.50341687  0.19301502     0.05000
C79         C  0.11654502  0.49508249  0.15683572     0.30500
C80         C  0.12744585  0.48311158  0.18586335    -0.35800
C81         C  0.15504116  0.49235775  0.19511754     0.16500
C82         C  0.17054817  0.51232377  0.17735848     0.22300
C83         C  0.15978213  0.52413770  0.14837589    -0.33900
C84         C  0.13251803  0.51456345  0.13885304     0.16400
O85         O  0.09185834  0.48858015  0.14257127    -0.26000
C86         C  0.09237941  0.50387789  0.11497767     0.06200
C87         C  0.11684722  0.02010600  0.11190888    -0.30800
O88         O  0.19605192  0.51745648  0.18989877    -0.22700
C89         C  0.19707989  0.50072508  0.21627675    -0.02700
C90         C  0.17228704  0.48414521  0.22033168    -0.17100
H91         H  0.11557221  0.46721868  0.19978368     0.20900
H92         H  0.17226166  0.03838588  0.13373199     0.19300
H93         H  0.12287657  0.03376639  0.09152776     0.19200
H94         H  0.16786131  0.46793492  0.23865566     0.15100
C95         C  0.11744665  0.00315002  0.35228366     0.30500
C96         C  0.12898791  0.01431071  0.32302088    -0.35800
C97         C  0.15579916  0.00391538  0.31378301     0.16500
C98         C  0.17077652  0.48454368  0.33162321     0.22300
C99         C  0.15959042  0.47376173  0.36115725    -0.33900
C100        C  0.13321081  0.48462226  0.37095935     0.16400
O101        O  0.09330286  0.01069377  0.36641073    -0.26000
C102        C  0.09287936  0.99579210  0.39427686     0.06200
C103        C  0.11759306  0.47971184  0.39858095    -0.30800
O104        O  0.19562408  0.47805965  0.31863875    -0.22700
C105        C  0.19750812  0.49426280  0.29180145    -0.02700
C106        C  0.17344000  0.01125876  0.28842795    -0.17100
H107        H  0.11817448  0.03046417  0.30889398     0.20900
H108        H  0.17096049  0.45837549  0.37583846     0.19300
H109        H  0.12267080  0.46581931  0.41895731     0.19200
H110        H  0.16999695  0.02748992  0.26998965     0.15100
C111        C  0.38153518  0.49259218  0.15443415     0.30500
C112        C  0.37055956  0.48107515  0.18374913    -0.35800
C113        C  0.34324821  0.49013370  0.19278449     0.16500
C114        C  0.32807212  0.50955041  0.17456903     0.22300
C115        C  0.33886111  0.52081892  0.14513475    -0.33900
C116        C  0.36588168  0.51141045  0.13583233     0.16400
O117        O  0.40608542  0.48624396  0.14056462    -0.26000
C118        C  0.40582153  0.50090511  0.11256990     0.05400
C119        C  0.38136168  0.51688368  0.10832321    -0.30800
O120        O  0.30297318  0.51496206  0.18742267    -0.22700
C121        C  0.30188307  0.49893664  0.21443570    -0.02700
C122        C  0.32617857  0.48244794  0.21849014    -0.17100
H123        H  0.38192352  0.96526799  0.19897554     0.20900
H124        H  0.32679582  0.53548960  0.13021557     0.19300
H125        H  0.37564318  0.53015896  0.08762906     0.19200
H126        H  0.33050627  0.46672511  0.23724541     0.15100
C127        C  0.32955988  0.48117186  0.32923933     0.30500
C128        C  0.34033246  0.46964309  0.35840511    -0.35800
C129        C  0.36749920  0.47947321  0.36805469     0.16500
C130        C  0.38340892  0.49894175  0.35000473     0.22300
C131        C  0.37171572  0.00911593  0.32155524    -0.33900
C132        C  0.34495780  0.50116629  0.31141519     0.16400
O133        O  0.30409324  0.47576199  0.31665710    -0.26000
C134        C  0.30287757  0.49235723  0.29017401     0.06200
C135        C  0.32695222  0.00768633  0.28694526    -0.30800
O136        O  0.40727960  0.00395569  0.36488407    -0.22700
C137        C  0.40754344  0.49052369  0.39210147    -0.02700
C138        C  0.38282114  0.47395499  0.39564133    -0.17100
H139        H  0.32804362  0.45456553  0.37302875     0.20900
H140        H  0.38350142  0.02508666  0.30765228     0.19300
H141        H  0.33127939  0.02398592  0.26869370     0.19200
H142        H  0.37677438  0.46029994  0.41602303     0.15100
C143        C  0.99669395  0.15425031  0.19755146     0.30500
C144        C  0.00486209  0.12593301  0.19157298    -0.35800
C145        C  0.99684372  0.11435891  0.16089917     0.16500
C146        C  0.48195239  0.12965361  0.13806641     0.22300
C147        C  0.47371408  0.15783208  0.14395089    -0.33900
C148        C  0.48130417  0.16926777  0.17464406     0.16400
O149        O  0.00339475  0.17001438  0.22357511    -0.26000
C150        C  0.49196393  0.19555380  0.21723840     0.06200
C151        C  0.47809042  0.19598281  0.18687795    -0.30800
O152        O  0.47857671  0.11552443  0.11024489    -0.22700
C153        C  0.49037124  0.09036484  0.11604008    -0.02700
C154        C  0.00226437  0.08849043  0.14689420    -0.17100
H155        H  0.01718980  0.11400871  0.20923744     0.20900
H156        H  0.46288786  0.17029299  0.12547241     0.19300
H157        H  0.46797847  0.21382407  0.17491697     0.19200
H158        H  0.01394190  0.07094152  0.15738965     0.15100
C159        C  0.48370213  0.13036445  0.37208332     0.30500
C160        C  0.47470615  0.15835154  0.36675659    -0.35800
C161        C  0.48139940  0.17010717  0.33606533     0.16500
C162        C  0.99501736  0.15538208  0.31263806     0.22300
C163        C  0.00326998  0.12696745  0.31760303    -0.33900
C164        C  0.99617774  0.11497696  0.34823446     0.16400
O165        O  0.48083496  0.11589517  0.39960168    -0.26000
C166        C  0.99140226  0.09071803  0.39339218     0.06200
C167        C  0.00195204  0.08890137  0.36149157    -0.30800
O168        O  0.00079920  0.17137032  0.28670141    -0.22700
C169        C  0.49024772  0.19663544  0.29328719    -0.02700
C170        C  0.47691636  0.19665194  0.32393451    -0.17100
H171        H  0.46379883  0.17035348  0.38553505     0.20900
H172        H  0.01496176  0.11528634  0.29919963     0.19300
H173        H  0.01326608  0.07145170  0.35028208     0.19200
H174        H  0.46616594  0.21395435  0.33614066     0.15100
C175        C  0.49871743  0.34049689  0.19504938     0.30500
C176        C  0.48896805  0.36813771  0.18843809    -0.35800
C177        C  0.49866329  0.38064180  0.15902495     0.16500
C178        C  0.01500226  0.36640126  0.13750812     0.22300
C179        C  0.02533751  0.33913251  0.14436431    -0.33900
C180        C  0.01589249  0.32669239  0.17377389     0.16400
O181        O  0.49137057  0.32418338  0.22024590    -0.26000
C182        C  0.50570545  0.30018533  0.21545793     0.06200
C183        C  0.02106821  0.30061674  0.18681129    -0.30800
O184        O  0.01994765  0.38127702  0.11059190    -0.22700
C185        C  0.50669844  0.40527803  0.11473723    -0.02700
C186        C  0.49253335  0.40618196  0.14475566    -0.17100
H187        H  0.47440764  0.37889255  0.20472402     0.20900
H188        H  0.03932373  0.32814241  0.12761053     0.19300
H189        H  0.03447220  0.28417457  0.17674549     0.19200
H190        H  0.47867350  0.42262839  0.15393630     0.15100
C191        C  0.00361122  0.38166343  0.35112072     0.30500
C192        C  0.01517194  0.37093240  0.32176155    -0.35800
C193        C  0.00482422  0.34390057  0.31163042     0.16500
C194        C  0.48465931  0.32883975  0.32919857     0.22300
C195        C  0.47326132  0.33935577  0.35851050    -0.33900
C196        C  0.48320224  0.36639564  0.36838595     0.16400
O197        O  0.01094684  0.40581314  0.36606896    -0.26000
C198        C  0.49484789  0.40593787  0.39297728     0.06200
C199        C  0.47816481  0.38129958  0.39636129    -0.30800
O200        O  0.47965819  0.30327634  0.31680132    -0.22700
C201        C  0.49639218  0.30211699  0.29044635    -0.02700
C202        C  0.01263895  0.32656844  0.28622841    -0.17100
H203        H  0.03160127  0.38245738  0.30829124     0.20900
H204        H  0.45842654  0.32685700  0.37322429     0.19300
H205        H  0.46472632  0.37506166  0.41683914     0.19200
H206        H  0.02931280  0.33053920  0.26835807     0.15100
O207        O  0.99698384  0.41881401  0.94863623    -0.74500
O208        O  0.00050008  0.45383846  0.90965536    -0.53500
C209        C  0.49791997  0.42795225  0.91846794     0.79200
O210        O  0.41960097  0.50146262  0.55770873    -0.59100
O211        O  0.45379486  0.49663744  0.59738334    -0.52200
C212        C  0.42785541  0.49999976  0.58782879     0.71200
O213        O  0.42074325  0.98866146  0.94806414    -0.73700
O214        O  0.45543018  0.99612590  0.90946525    -0.54300
C215        C  0.42978079  0.49186021  0.91763353     0.77200
O216        O  0.50636894  0.41878060  0.55998118    -0.58800
O217        O  0.49883079  0.45319499  0.59866885    -0.52000
C218        C  0.50344028  0.42728457  0.58989310     0.73800
Zr219      Zr  0.00220586  0.43841138  0.00410079     2.54700
O220        O  0.46822569  0.39880607  0.00890875    -0.79400
O221        O  0.04162769  0.40534448  0.49934359    -0.92800
Zr222      Zr  0.43970498  0.99319854  0.00368353     2.64700
O223        O  0.40948477  0.45148355  0.00876805    -0.97800
O224        O  0.40181123  0.02942840  0.49785809    -0.79800
O225        O  0.47132199  0.46613727  0.97109394    -0.83200
O226        O  0.46955664  0.46583050  0.53607723    -2.17900
O227        O  0.07825524  0.50581667  0.56042693    -0.66600
O228        O  0.04339090  0.49859932  0.59889927    -0.51200
C229        C  0.06999109  0.00215511  0.58990542     0.72200
O230        O  0.99338718  0.07731638  0.94914753    -0.59500
O231        O  0.99798285  0.04266016  0.91003806    -0.51500
C232        C  0.99486811  0.06875165  0.91916461     0.74000
O233        O  0.49220659  0.07764664  0.55932148    -0.70900
O234        O  0.49709341  0.04280121  0.59815283    -0.49600
C235        C  0.99388002  0.06853450  0.58973115     0.75400
O236        O  0.07923725  0.99817591  0.94983784    -0.66200
O237        O  0.04462299  0.00018319  0.91027087    -0.53400
C238        C  0.07082586  0.99851439  0.91968429     0.73700
Zr239      Zr  0.05889396  0.50213703  0.50493113     2.77500
O240        O  0.09108636  0.04313844  0.00097255    -0.97000
O241        O  0.09640311  0.46706682  0.51004518    -0.77800
Zr242      Zr  0.49642176  0.05778404  0.50394168     2.70100
O243        O  0.03509253  0.09278364  0.50585108    -0.79000
O244        O  0.45806837  0.09271685  0.00206695    -0.98100
Zr245      Zr  0.99970673  0.99808710  0.94049550     2.21500
Zr246      Zr  0.49892853  0.49762596  0.56800920     2.11100
O247        O  0.02774154  0.03022389  0.53654568    -2.46800
O248        O  0.02825035  0.03059640  0.97215841    -0.78800
O249        O  0.03082563  0.46991965  0.53684007    -0.71000
O250        O  0.46750485  0.02590850  0.97233049    -2.32000
O251        O  0.03107370  0.46987123  0.97228713    -2.28200
O252        O  0.46754435  0.02640412  0.53578774    -0.72800
H253        H  0.45799901  0.45361127  0.55003203     0.79200
H254        H  0.45499552  0.03668929  0.95828850     0.80300
H255        H  0.03875637  0.04280828  0.55073208     0.82500
H256        H  0.04314385  0.45851815  0.95834149     0.80100
H257        H  0.40725812  0.04377822  0.99777350     0.43200
H258        H  0.44444001  0.08617864  0.51816286     0.42100
H259        H  0.04649402  0.08855788  0.98645573     0.41800
H260        H  0.08560825  0.05548281  0.52091051     0.39700
H261        H  0.08654151  0.44972819  0.51856404     0.42900
H262        H  0.04900099  0.40744124  0.97778719     0.37700
H263        H  0.45183254  0.40427292  0.99499141     0.43800
H264        H  0.40558855  0.44982814  0.53021785     0.40200
H265        H  0.10947322  0.03668841  0.50552078     0.45100
H266        H  0.03214104  0.38605523  0.00044677     0.43800
H267        H  0.41187645  0.44091641  0.98789322     0.44000
H268        H  0.46712747  0.11041825  0.51110208     0.44300
C269        C  0.49723400  0.27510733  0.77105317     0.03000
C270        C  0.50134185  0.27418506  0.73667741     0.03000
C271        C  0.50061625  0.24753825  0.72078605    -0.17500
C272        C  0.49559082  0.22170982  0.73768508     0.03000
C273        C  0.49293996  0.22243456  0.77244753     0.03000
C274        C  0.49373832  0.24928086  0.78829023    -0.17500
H275        H  0.49204187  0.25029596  0.81479587     0.05000
H276        H  0.50307553  0.24695451  0.69433422     0.05000
C277        C  0.27611854  0.49240928  0.77036925     0.03000
C278        C  0.27583983  0.49811688  0.73608819     0.03000
C279        C  0.24943228  0.50158633  0.72017760    -0.17500
C280        C  0.22326892  0.49891508  0.73686595     0.03000
C281        C  0.22347042  0.49350771  0.77116928     0.03000
C282        C  0.24988241  0.48959024  0.78706841    -0.17500
H283        H  0.25008694  0.48571302  0.81334189     0.05000
H284        H  0.24918632  0.50545280  0.69389889     0.05000
C285        C  0.11596132  0.49600842  0.65761551     0.30500
C286        C  0.12706328  0.48367453  0.68634016    -0.35800
C287        C  0.15462958  0.49297371  0.69569124     0.16500
C288        C  0.16998216  0.51327517  0.67826964     0.22300
C289        C  0.15897438  0.52551737  0.64960279    -0.33900
C290        C  0.13169211  0.51594077  0.64000948     0.16400
O291        O  0.09133754  0.48940059  0.64324933    -0.26000
C292        C  0.09159917  0.50511900  0.61596902     0.06200
C293        C  0.11727052  0.01994466  0.61178391    -0.30800
O294        O  0.19556695  0.51827879  0.69076743    -0.22700
C295        C  0.19679212  0.50113769  0.71680865    -0.02700
C296        C  0.17200945  0.48446802  0.72066184    -0.17100
H297        H  0.11536449  0.46744635  0.69994385     0.20900
H298        H  0.17258653  0.03803236  0.63390727     0.19300
H299        H  0.12344321  0.03358869  0.59144247     0.19200
H300        H  0.16767806  0.46796737  0.73867003     0.15100
C301        C  0.11817160  0.00379168  0.85294426     0.30500
C302        C  0.12996387  0.01518173  0.82391158    -0.35800
C303        C  0.15660610  0.00446379  0.81451470     0.16500
C304        C  0.16978011  0.48286177  0.83080939     0.22300
C305        C  0.15786657  0.47133033  0.85957692    -0.33900
C306        C  0.13189015  0.48287265  0.86968921     0.16400
O307        O  0.09395961  0.01129745  0.86696841    -0.26000
C308        C  0.09317221  0.99597996  0.89453989     0.06200
C309        C  0.11597137  0.47763934  0.89698942    -0.30800
O310        O  0.19449810  0.47594864  0.81779419    -0.22700
C311        C  0.19724849  0.49313614  0.79188489    -0.02700
C312        C  0.17421031  0.01151855  0.78900393    -0.17100
H313        H  0.11936270  0.03158076  0.80994800     0.20900
H314        H  0.16846307  0.45493014  0.87354904     0.19300
H315        H  0.12036482  0.46284512  0.91672904     0.19200
H316        H  0.17098436  0.02785439  0.77062925     0.15100
C317        C  0.38143652  0.49393317  0.65487620     0.30500
C318        C  0.37046616  0.48218643  0.68405959    -0.35800
C319        C  0.34329952  0.49139956  0.69341221     0.16500
C320        C  0.32823362  0.51121467  0.67566739     0.22300
C321        C  0.33903178  0.52274175  0.64632222    -0.33900
C322        C  0.36591098  0.51311810  0.63663891     0.16400
O323        O  0.40583505  0.48741924  0.64077503    -0.26000
C324        C  0.40564373  0.50231625  0.61295458     0.05400
C325        C  0.38133298  0.51861421  0.60903842    -0.30800
O326        O  0.30311237  0.51646276  0.68865034    -0.22700
C327        C  0.30190209  0.49986646  0.71522770    -0.02700
C328        C  0.32618173  0.48328870  0.71888750    -0.17100
H329        H  0.38292906  0.96617083  0.69981668     0.20900
H330        H  0.32702908  0.53766822  0.63167999     0.19300
H331        H  0.37567963  0.53211865  0.58851931     0.19200
H332        H  0.33040082  0.46707188  0.73710737     0.15100
C333        C  0.33007816  0.47876363  0.82860232     0.30500
C334        C  0.34155713  0.46648219  0.85703260    -0.35800
C335        C  0.36820784  0.47734693  0.86731029     0.16500
C336        C  0.38296656  0.49851303  0.85052206     0.22300
C337        C  0.37120898  0.00952929  0.82235299    -0.33900
C338        C  0.34442726  0.50032772  0.81207298     0.16400
O339        O  0.30477763  0.47279526  0.81574002    -0.26000
C340        C  0.30272565  0.49061926  0.79037871     0.06200
C341        C  0.32657229  0.00737424  0.78767683    -0.30800
O342        O  0.40701442  0.00466782  0.86546448    -0.22700
C343        C  0.40778153  0.48939033  0.89184889    -0.02700
C344        C  0.38399303  0.47135238  0.89443811    -0.17100
H345        H  0.33014359  0.45009214  0.87070180     0.20900
H346        H  0.38235593  0.02631104  0.80903075     0.19300
H347        H  0.33028757  0.02436384  0.77010013     0.19200
H348        H  0.37885308  0.45639818  0.91391709     0.15100
C349        C  0.99616893  0.15380083  0.69819909     0.30500
C350        C  0.00425488  0.12540236  0.69241868    -0.35800
C351        C  0.99715972  0.11406511  0.66131435     0.16500
C352        C  0.48345435  0.13036701  0.63699907     0.22300
C353        C  0.47475176  0.15835869  0.64307000    -0.33900
C354        C  0.48187334  0.16962025  0.67398183     0.16400
O355        O  0.00233369  0.16949831  0.72445114    -0.26000
C356        C  0.49139640  0.19555764  0.71714841     0.06200
C357        C  0.47775317  0.19601928  0.68664691    -0.30800
O358        O  0.48001020  0.11620715  0.60921668    -0.22700
C359        C  0.49181587  0.09105924  0.61502701    -0.02700
C360        C  0.00267167  0.08819253  0.64731049    -0.17100
H361        H  0.01588801  0.11327578  0.71052795     0.20900
H362        H  0.46368353  0.17072465  0.62469710     0.19300
H363        H  0.46726897  0.21373210  0.67486049     0.19200
H364        H  0.01380666  0.07041797  0.65810080     0.15100
C365        C  0.48293334  0.13061830  0.87279241     0.30500
C366        C  0.47377345  0.15850676  0.86714318    -0.35800
C367        C  0.48046208  0.17008388  0.83634263     0.16500
C368        C  0.99583553  0.15570135  0.81343952     0.22300
C369        C  0.00431479  0.12738392  0.81841868    -0.33900
C370        C  0.99729153  0.11537060  0.84902228     0.16400
O371        O  0.48014007  0.11632144  0.90047124    -0.26000
C372        C  0.99235573  0.09093882  0.89394955     0.06200
C373        C  0.00302941  0.08924983  0.86212324    -0.30800
O374        O  0.00127970  0.17159048  0.78735969    -0.22700
C375        C  0.48921229  0.19641851  0.79335074    -0.02700
C376        C  0.47581435  0.19649803  0.82396085    -0.17100
H377        H  0.46275115  0.17058407  0.88576559     0.20900
H378        H  0.01599146  0.11574024  0.79997221     0.19300
H379        H  0.01431366  0.07182066  0.85083338     0.19200
H380        H  0.46491166  0.21378772  0.83600396     0.15100
C381        C  0.49761084  0.34045326  0.69576916     0.30500
C382        C  0.48752988  0.36794497  0.68907137    -0.35800
C383        C  0.49744392  0.38066914  0.65988274     0.16500
C384        C  0.01553390  0.36653076  0.63786550     0.22300
C385        C  0.02581712  0.33918736  0.64461807    -0.33900
C386        C  0.01634410  0.32665117  0.67400191     0.16400
O387        O  0.49003177  0.32391552  0.72066388    -0.26000
C388        C  0.50468714  0.30011623  0.71594535     0.06200
C389        C  0.02129299  0.30044148  0.68691913    -0.30800
O390        O  0.02029343  0.38142566  0.61089766    -0.22700
C391        C  0.50553243  0.40543356  0.61568353    -0.02700
C392        C  0.49095564  0.40605348  0.64545836    -0.17100
H393        H  0.47249776  0.37838065  0.70506086     0.20900
H394        H  0.03969873  0.32818150  0.62776057     0.19300
H395        H  0.03458528  0.28393505  0.67679298     0.19200
H396        H  0.47660488  0.42218501  0.65436224     0.15100
C397        C  0.00302726  0.38187566  0.85045369     0.30500
C398        C  0.01484585  0.37080728  0.82144070    -0.35800
C399        C  0.00426463  0.34389790  0.81130184     0.16500
C400        C  0.48431304  0.32895768  0.82904302     0.22300
C401        C  0.47273880  0.33985233  0.85805457    -0.33900
C402        C  0.48328135  0.36661902  0.86809096     0.16400
O403        O  0.01087774  0.40578340  0.86557125    -0.26000
C404        C  0.49537802  0.40601383  0.89271431     0.06200
C405        C  0.47802954  0.38180145  0.89579695    -0.30800
O406        O  0.47868070  0.30356087  0.81653682    -0.22700
C407        C  0.49575079  0.30191107  0.79053916    -0.02700
C408        C  0.01250801  0.32625717  0.78641794    -0.17100
H409        H  0.03179327  0.38190828  0.80836071     0.20900
H410        H  0.45723911  0.32784431  0.87239703     0.19300
H411        H  0.46397888  0.37602499  0.91590402     0.19200
H412        H  0.02964200  0.32987312  0.76903501     0.15100
O413        O  0.99624443  0.91880295  0.44896442    -0.74500
O414        O  0.00014418  0.95362242  0.40979565    -0.53500
C415        C  0.49697856  0.92734461  0.41896289     0.79200
O416        O  0.41951973  0.99954397  0.05838797    -0.59100
O417        O  0.45391609  0.99625955  0.09809157    -0.52200
C418        C  0.42788472  0.99881472  0.08855955     0.71200
O419        O  0.42082903  0.49057180  0.44774266    -0.73700
O420        O  0.45576673  0.49714768  0.40926404    -0.54300
C421        C  0.42892276  0.99129906  0.41814972     0.77200
O422        O  0.50666539  0.91897575  0.06008835    -0.58800
O423        O  0.49901650  0.95329044  0.09887568    -0.52000
C424        C  0.50358754  0.92740279  0.08999709     0.73800
Zr425      Zr  0.00245491  0.93835226  0.50434264     2.54700
O426        O  0.46575804  0.90007906  0.51033778    -0.79400
O427        O  0.04072856  0.90429737  0.99941612    -0.92800
Zr428      Zr  0.43994310  0.49503123  0.50330087     2.64700
O429        O  0.40463344  0.95541874  0.50776735    -0.97800
O430        O  0.39915884  0.52473557  0.99687435    -0.79800
O431        O  0.47033516  0.96623986  0.47160376    -0.83200
O432        O  0.47012319  0.96502554  0.03640399    -2.17900
O433        O  0.07805989  0.00446925  0.06035595    -0.66600
O434        O  0.04327674  0.99873306  0.09920037    -0.51200
C435        C  0.07019348  0.50199336  0.08942292     0.72200
O436        O  0.99330539  0.57730921  0.44882033    -0.59500
O437        O  0.99870058  0.54266317  0.40983740    -0.51500
C438        C  0.99517170  0.56872383  0.41882644     0.74000
O439        O  0.49018531  0.57664917  0.06050890    -0.70900
O440        O  0.49627302  0.54178321  0.09902973    -0.49600
C441        C  0.99339923  0.56795112  0.09014742     0.75400
O442        O  0.07976836  0.49872693  0.45014827    -0.66200
O443        O  0.04517454  0.50051763  0.41054204    -0.53400
C444        C  0.07140466  0.49908793  0.41996880     0.73700
Zr445      Zr  0.05864991  0.00204525  0.00469188     2.77500
O446        O  0.09389053  0.54105564  0.50036578    -0.97000
O447        O  0.09818135  0.96914954  0.00835009    -0.77800
Zr448      Zr  0.49626819  0.55794411  0.00466942     2.70100
O449        O  0.03413720  0.59371204  0.00683164    -0.79000
O450        O  0.46240251  0.59567180  0.50215876    -0.98100
Zr451      Zr  0.00006904  0.49823760  0.44051074     2.21500
Zr452      Zr  0.49869073  0.99767421  0.06820588     2.11100
O453        O  0.02774580  0.53028386  0.03653107    -2.46800
O454        O  0.02847484  0.53078058  0.47243628    -0.78800
O455        O  0.03068677  0.96971541  0.03651551    -0.71000
O456        O  0.46847471  0.52694459  0.47188929    -2.32000
O457        O  0.03105537  0.96966463  0.47224634    -2.28200
O458        O  0.46748018  0.52598767  0.03577294    -0.72800
H459        H  0.45884411  0.95254341  0.05032005     0.79200
H460        H  0.45620091  0.53793359  0.45779043     0.80300
H461        H  0.03869086  0.54285221  0.05079861     0.82500
H462        H  0.04310405  0.95829603  0.45828242     0.80100
H463        H  0.41142337  0.54819172  0.49993733     0.43200
H464        H  0.44528734  0.58811711  0.01917468     0.42100
H465        H  0.04856460  0.58693827  0.49056790     0.41800
H466        H  0.08598992  0.55595577  0.01958653     0.39700
H467        H  0.09087113  0.95140057  0.99779622     0.42900
H468        H  0.04736419  0.90569578  0.47629240     0.37700
H469        H  0.44843645  0.90741052  0.49944045     0.43800
H470        H  0.38960628  0.95781078  0.00378388     0.40200
H471        H  0.11042236  0.53576080  0.00838405     0.45100
H472        H  0.03687118  0.88877107  0.50730178     0.43800
H473        H  0.38626434  0.96492841  0.51192350     0.44000
H474        H  0.46874152  0.61157418  0.01186554     0.44300
C475        C  0.49855310  0.77483147  0.27099428     0.03000
C476        C  0.50306890  0.77408543  0.23663225     0.03000
C477        C  0.50238693  0.74743356  0.22058049    -0.17500
C478        C  0.49713387  0.72152186  0.23730968     0.03000
C479        C  0.49396796  0.72218364  0.27201257     0.03000
C480        C  0.49469239  0.74894394  0.28798842    -0.17500
H481        H  0.49265631  0.74983219  0.31446784     0.05000
H482        H  0.50500046  0.74688230  0.19415186     0.05000
C483        C  0.27581270  0.99279883  0.27082321     0.03000
C484        C  0.27552560  0.99729793  0.23633325     0.03000
C485        C  0.24918075  0.00075655  0.22042979    -0.17500
C486        C  0.22308100  0.99888581  0.23725884     0.03000
C487        C  0.22324426  0.99434723  0.27171959     0.03000
C488        C  0.24963094  0.99087819  0.28771121    -0.17500
H489        H  0.24985035  0.98776219  0.31412291     0.05000
H490        H  0.24890780  0.00382705  0.19400771     0.05000
C491        C  0.11633969  0.99491934  0.15736306     0.30500
C492        C  0.12727988  0.98297692  0.18639881    -0.35800
C493        C  0.15494954  0.99209441  0.19551703     0.16500
C494        C  0.17056674  0.01183660  0.17757468     0.22300
C495        C  0.15986730  0.02344592  0.14842886    -0.33900
C496        C  0.13243994  0.01410860  0.13912763     0.16400
O497        O  0.09138860  0.98879893  0.14345014    -0.26000
C498        C  0.09182752  0.00405939  0.11580759     0.06200
C499        C  0.11715470  0.52034083  0.11142411    -0.30800
O500        O  0.19597176  0.01716344  0.19030938    -0.22700
C501        C  0.19681083  0.00075294  0.21697781    -0.02700
C502        C  0.17202806  0.98416332  0.22098703    -0.17100
H503        H  0.11528216  0.96735991  0.20058393     0.20900
H504        H  0.17212072  0.53921496  0.13380145     0.19300
H505        H  0.12318851  0.53411120  0.09113914     0.19200
H506        H  0.16747381  0.96813780  0.23948295     0.15100
C507        C  0.11840830  0.50434177  0.35270508     0.30500
C508        C  0.12978548  0.51536186  0.32323627    -0.35800
C509        C  0.15649810  0.50482187  0.31369543     0.16500
C510        C  0.16997097  0.98355203  0.33170727     0.22300
C511        C  0.15855461  0.97252671  0.36097658    -0.33900
C512        C  0.13211431  0.98332481  0.37055169     0.16400
O513        O  0.09418223  0.51171061  0.36686556    -0.26000
C514        C  0.09382709  0.49681561  0.39477392     0.06200
C515        C  0.11647338  0.97849152  0.39812451    -0.30800
O516        O  0.19499448  0.97732382  0.31905230    -0.22700
C517        C  0.19706658  0.99379043  0.29245630    -0.02700
C518        C  0.17387873  0.51178264  0.28790345    -0.17100
H519        H  0.11884308  0.53139504  0.30906160     0.20900
H520        H  0.16986026  0.95713413  0.37571728     0.19300
H521        H  0.12150130  0.96465867  0.41857366     0.19200
H522        H  0.17031249  0.52785822  0.26931628     0.15100
C523        C  0.38133697  0.99250509  0.15553861     0.30500
C524        C  0.37020804  0.98060485  0.18460336    -0.35800
C525        C  0.34273403  0.98933784  0.19346491     0.16500
C526        C  0.32756062  0.00880538  0.17532900     0.22300
C527        C  0.33845906  0.02038269  0.14610663    -0.33900
C528        C  0.36564621  0.01131839  0.13697712     0.16400
O529        O  0.40598456  0.98638174  0.14172839    -0.26000
C530        C  0.40571765  0.00112687  0.11376949     0.05400
C531        C  0.38120425  0.01702421  0.10956731    -0.30800
O532        O  0.30247622  0.01419452  0.18821018    -0.22700
C533        C  0.30137652  0.99810816  0.21517373    -0.02700
C534        C  0.32563044  0.98153201  0.21911314    -0.17100
H535        H  0.38224623  0.46574071  0.19815583     0.20900
H536        H  0.32638185  0.03508762  0.13124684     0.19300
H537        H  0.37542478  0.03026343  0.08886880     0.19200
H538        H  0.32998757  0.96580873  0.23785749     0.15100
C539        C  0.32883788  0.97954374  0.32993100     0.30500
C540        C  0.33962046  0.96791058  0.35903237    -0.35800
C541        C  0.36680763  0.97770144  0.36863246     0.16500
C542        C  0.38265589  0.99725933  0.35062322     0.22300
C543        C  0.37249340  0.51066955  0.32079168    -0.33900
C544        C  0.34422520  0.99961805  0.31220483     0.16400
O545        O  0.30339312  0.97418278  0.31728986    -0.26000
C546        C  0.30226002  0.99089898  0.29089698     0.06200
C547        C  0.32761159  0.50912411  0.28609338    -0.30800
O548        O  0.40802577  0.50567136  0.36437052    -0.22700
C549        C  0.40689212  0.98869398  0.39250013    -0.02700
C550        C  0.38222553  0.97206439  0.39610211    -0.17100
H551        H  0.32736024  0.95277156  0.37360613     0.20900
H552        H  0.38431189  0.52657254  0.30682416     0.19300
H553        H  0.33192983  0.52531377  0.26770904     0.19200
H554        H  0.37626054  0.95835176  0.41646253     0.15100
C555        C  0.99676648  0.65375152  0.19812317     0.30500
C556        C  0.00488693  0.62531951  0.19244338    -0.35800
C557        C  0.99717641  0.61363559  0.16166816     0.16500
C558        C  0.48166199  0.62897181  0.13830997     0.22300
C559        C  0.47389356  0.65729555  0.14396324    -0.33900
C560        C  0.48208925  0.66894526  0.17432072     0.16400
O561        O  0.00329828  0.66971831  0.22405384    -0.26000
C562        C  0.49290700  0.69533860  0.21673376     0.06200
C563        C  0.47904621  0.69573164  0.18638416    -0.30800
O564        O  0.47776987  0.61471805  0.11068226    -0.22700
C565        C  0.48952350  0.58956001  0.11641980    -0.02700
C566        C  0.00264413  0.58771631  0.14767272    -0.17100
H567        H  0.01699005  0.61343266  0.21035481     0.20900
H568        H  0.46289498  0.66967746  0.12555305     0.19300
H569        H  0.46880550  0.71351650  0.17446117     0.19200
H570        H  0.01423559  0.57013699  0.15824126     0.15100
C571        C  0.48370140  0.63026987  0.37211931     0.30500
C572        C  0.47420650  0.65803798  0.36637186    -0.35800
C573        C  0.48093208  0.66968265  0.33560829     0.16500
C574        C  0.99625590  0.65531628  0.31252924     0.22300
C575        C  0.00576457  0.62743056  0.31814745    -0.33900
C576        C  0.99791036  0.61512179  0.34834377     0.16400
O577        O  0.48093866  0.61595002  0.39978364    -0.26000
C578        C  0.99251673  0.59072080  0.39330239     0.06200
C579        C  0.00463639  0.58950467  0.36212033    -0.30800
O580        O  0.00271369  0.67161697  0.28708739    -0.22700
C581        C  0.48991254  0.69612662  0.29275376    -0.02700
C582        C  0.47620521  0.69608796  0.32319660    -0.17100
H583        H  0.46295435  0.66999307  0.38491458     0.20900
H584        H  0.01902812  0.61644533  0.30062495     0.19300
H585        H  0.01749109  0.57277047  0.35173619     0.19200
H586        H  0.46516709  0.71332791  0.33517079     0.15100
C587        C  0.49925324  0.84063963  0.19610484     0.30500
C588        C  0.48884531  0.86803631  0.18947441    -0.35800
C589        C  0.49802416  0.88064138  0.15990082     0.16500
C590        C  0.01676189  0.86700590  0.13839799     0.22300
C591        C  0.02674244  0.83956493  0.14514436    -0.33900
C592        C  0.01726740  0.82716006  0.17459655     0.16400
O593        O  0.49214487  0.82411736  0.22120808    -0.26000
C594        C  0.50653403  0.80020125  0.21607353     0.06200
C595        C  0.02179780  0.80080078  0.18729671    -0.30800
O596        O  0.02148442  0.88172097  0.11128456    -0.22700
C597        C  0.50555939  0.90542918  0.11560343    -0.02700
C598        C  0.49123445  0.90598859  0.14554622    -0.17100
H599        H  0.47409238  0.87847660  0.20580428     0.20900
H600        H  0.04033732  0.82834417  0.12816705     0.19300
H601        H  0.03464333  0.78408831  0.17685616     0.19200
H602        H  0.47704048  0.92214754  0.15472452     0.15100
C603        C  0.00316619  0.88139826  0.35131545     0.30500
C604        C  0.01519922  0.87038947  0.32242538    -0.35800
C605        C  0.00501111  0.84332318  0.31242984     0.16500
C606        C  0.48507798  0.82826886  0.32939431     0.22300
C607        C  0.47279137  0.83922490  0.35800548    -0.33900
C608        C  0.48311059  0.86600877  0.36831883     0.16400
O609        O  0.01048804  0.90558994  0.36610759    -0.26000
C610        C  0.49476252  0.90539482  0.39322821     0.06200
C611        C  0.47712644  0.88133576  0.39573988    -0.30800
O612        O  0.47947322  0.80301739  0.31646810    -0.22700
C613        C  0.49695987  0.80146655  0.29080333    -0.02700
C614        C  0.01325231  0.82593852  0.28734114    -0.17100
H615        H  0.03189119  0.88175093  0.30920540     0.20900
H616        H  0.45682889  0.82731651  0.37178320     0.19300
H617        H  0.46247767  0.87572260  0.41533615     0.19200
H618        H  0.03016263  0.82988933  0.26976335     0.15100
O619        O  0.99576186  0.91875891  0.94897396    -0.74500
O620        O  0.00125944  0.95359587  0.91004309    -0.53500
C621        C  0.49795073  0.92794247  0.91884357     0.79200
O622        O  0.41982136  0.99994286  0.55848450    -0.59100
O623        O  0.45428918  0.99633675  0.59803655    -0.52200
C624        C  0.42823471  0.99893669  0.58860103     0.71200
O625        O  0.42106116  0.48905472  0.94744840    -0.73700
O626        O  0.45587833  0.49670732  0.90904991    -0.54300
C627        C  0.42936638  0.99131817  0.91819846     0.77200
O628        O  0.50596002  0.91886542  0.55974563    -0.58800
O629        O  0.49974747  0.95350897  0.59852843    -0.52000
C630        C  0.50369759  0.92747741  0.58970422     0.73800
Zr631      Zr  0.00194317  0.93809034  0.00448166     2.54700
O632        O  0.46916643  0.89792424  0.01018022    -0.79400
O633        O  0.04391787  0.90783363  0.50015713    -0.92800
Zr634      Zr  0.44005201  0.49377576  0.00304452     2.64700
O635        O  0.40906721  0.95084302  0.00832375    -0.97800
O636        O  0.40174348  0.52931009  0.49770316    -0.79800
O637        O  0.47121343  0.96576142  0.97175055    -0.83200
O638        O  0.46959554  0.96584440  0.53614530    -2.17900
O639        O  0.07857892  0.00429547  0.55993795    -0.66600
O640        O  0.04377882  0.99881295  0.59883151    -0.51200
C641        C  0.06954811  0.50297246  0.59024349     0.72200
O642        O  0.99291491  0.57787055  0.94920031    -0.59500
O643        O  0.99800642  0.54323207  0.91013527    -0.51500
C644        C  0.99461947  0.56931181  0.91918903     0.74000
O645        O  0.49181784  0.57697390  0.56014332    -0.70900
O646        O  0.49776072  0.54215806  0.59878887    -0.49600
C647        C  0.99271253  0.56853058  0.58989203     0.75400
O648        O  0.07958241  0.49839105  0.94947000    -0.66200
O649        O  0.04471116  0.50028022  0.91015234    -0.53400
C650        C  0.07097339  0.49864791  0.91937776     0.73700
Zr651      Zr  0.05877502  0.00217961  0.50441389     2.77500
O652        O  0.09175491  0.54331074  0.00133745    -0.97000
O653        O  0.09822527  0.96909062  0.50729509    -0.77800
Zr654      Zr  0.49748764  0.55785035  0.50450928     2.70100
O655        O  0.03414863  0.59372841  0.50638445    -0.79000
O656        O  0.45954094  0.59416154  0.00252128    -0.98100
Zr657      Zr  0.99970032  0.49844669  0.94023981     2.21500
Zr658      Zr  0.49888766  0.99793622  0.56779574     2.11100
O659        O  0.02763298  0.53037972  0.53684091    -2.46800
O660        O  0.02826626  0.53096307  0.97201917    -0.78800
O661        O  0.03104506  0.96990202  0.53654478    -0.71000
O662        O  0.46799745  0.52644799  0.97188285    -2.32000
O663        O  0.03094000  0.96944475  0.97265582    -2.28200
O664        O  0.46810232  0.52660589  0.53593526    -0.72800
H665        H  0.45828995  0.95355029  0.55024204     0.79200
H666        H  0.45552472  0.53724408  0.95781732     0.80300
H667        H  0.03849696  0.54304741  0.55107422     0.82500
H668        H  0.04303787  0.95810909  0.95871928     0.80100
H669        H  0.40746032  0.54433164  0.99737149     0.43200
H670        H  0.44870194  0.59120641  0.52000615     0.42100
H671        H  0.04734465  0.58840212  0.98896089     0.41800
H672        H  0.08980999  0.55382172  0.51912384     0.39700
H673        H  0.08984257  0.95165699  0.51743818     0.42900
H674        H  0.04914451  0.90798789  0.97749580     0.37700
H675        H  0.45444979  0.90095776  0.99308267     0.43800
H676        H  0.40914834  0.94577057  0.52873989     0.40200
H677        H  0.11233714  0.53225457  0.50605187     0.45100
H678        H  0.03102222  0.88542797  0.99719683     0.43800
H679        H  0.41379352  0.93917797  0.98883033     0.44000
H680        H  0.47279005  0.61309262  0.50969575     0.44300
C681        C  0.49716459  0.77502927  0.77124964     0.03000
C682        C  0.50130970  0.77417650  0.73677554     0.03000
C683        C  0.50028336  0.74746060  0.72083233    -0.17500
C684        C  0.49518160  0.72160103  0.73769739     0.03000
C685        C  0.49240160  0.72236884  0.77242166     0.03000
C686        C  0.49333927  0.74914991  0.78834027    -0.17500
H687        H  0.49153245  0.75000893  0.81485201     0.05000
H688        H  0.50263142  0.74679247  0.69438032     0.05000
C689        C  0.27601701  0.99156649  0.77083538     0.03000
C690        C  0.27576571  0.99669658  0.73644108     0.03000
C691        C  0.24938650  0.00043324  0.72059912    -0.17500
C692        C  0.22325156  0.99838940  0.73740520     0.03000
C693        C  0.22348253  0.99356202  0.77180900     0.03000
C694        C  0.24984601  0.98955417  0.78768657    -0.17500
H695        H  0.25009094  0.98611756  0.81404490     0.05000
H696        H  0.24911146  0.00388759  0.69424488     0.05000
C697        C  0.11643740  0.99480823  0.65730437     0.30500
C698        C  0.12720861  0.98287680  0.68645995    -0.35800
C699        C  0.15489553  0.99191721  0.69572800     0.16500
C700        C  0.17065158  0.01153567  0.67776458     0.22300
C701        C  0.16007587  0.02317522  0.64858183    -0.33900
C702        C  0.13266515  0.01394479  0.63915160     0.16400
O703        O  0.09157647  0.98870386  0.64317179    -0.26000
C704        C  0.09223825  0.00390726  0.61548412     0.06200
C705        C  0.11616515  0.52197381  0.61273270    -0.30800
O706        O  0.19609388  0.01672240  0.69047462    -0.22700
C707        C  0.19687520  0.00038264  0.71719739    -0.02700
C708        C  0.17192995  0.98399734  0.72129875    -0.17100
H709        H  0.11509605  0.96730382  0.70058561     0.20900
H710        H  0.17116430  0.54089103  0.63527303     0.19300
H711        H  0.12202470  0.53605313  0.59266216     0.19200
H712        H  0.16726905  0.96806462  0.73986800     0.15100
C713        C  0.11810852  0.50394880  0.85240386     0.30500
C714        C  0.13016934  0.51565835  0.82366260    -0.35800
C715        C  0.15649534  0.50441095  0.81384178     0.16500
C716        C  0.17042693  0.98367656  0.83215534     0.22300
C717        C  0.15885096  0.97254458  0.86129049    -0.33900
C718        C  0.13253088  0.98357427  0.87095990     0.16400
O719        O  0.09423898  0.51191766  0.86687641    -0.26000
C720        C  0.09310607  0.49600199  0.89399436     0.06200
C721        C  0.11662096  0.97845148  0.89828062    -0.30800
O722        O  0.19518302  0.97692633  0.81920685    -0.22700
C723        C  0.19742885  0.99346125  0.79269444    -0.02700
C724        C  0.17437262  0.51170582  0.78865482    -0.17100
H725        H  0.12006329  0.53273679  0.81030079     0.20900
H726        H  0.16986651  0.95674422  0.87574716     0.19300
H727        H  0.12136182  0.96424665  0.91848284     0.19200
H728        H  0.17161083  0.52859433  0.77084310     0.15100
C729        C  0.38178894  0.99255565  0.65570645     0.30500
C730        C  0.37092022  0.98102837  0.68509827    -0.35800
C731        C  0.34330999  0.98948243  0.69383506     0.16500
C732        C  0.32776293  0.00834840  0.67528756     0.22300
C733        C  0.33838617  0.01950066  0.64572130    -0.33900
C734        C  0.36570393  0.01071355  0.63672941     0.16400
O735        O  0.40658351  0.98672061  0.64203641    -0.26000
C736        C  0.40601111  0.00101084  0.61377235     0.05400
C737        C  0.38113320  0.01626650  0.60920663    -0.30800
O738        O  0.30256482  0.01348422  0.68805507    -0.22700
C739        C  0.30171236  0.99778055  0.71533508    -0.02700
C740        C  0.32632495  0.98176688  0.71961607    -0.17100
H741        H  0.38201676  0.46649206  0.69808916     0.20900
H742        H  0.32602043  0.03369388  0.63051673     0.19300
H743        H  0.37508216  0.02906493  0.58824387     0.19200
H744        H  0.33096016  0.96630488  0.73854835     0.15100
C745        C  0.32948227  0.97806139  0.82952441     0.30500
C746        C  0.34071558  0.96613337  0.85828710    -0.35800
C747        C  0.36750714  0.97680795  0.86834605     0.16500
C748        C  0.38260200  0.99740890  0.85102493     0.22300
C749        C  0.37138606  0.51092207  0.82208163    -0.33900
C750        C  0.34412148  0.99919483  0.81260220     0.16400
O751        O  0.30419559  0.97216735  0.81662388    -0.26000
C752        C  0.30249056  0.98963567  0.79089519     0.06200
C753        C  0.32667916  0.50861867  0.78733583    -0.30800
O754        O  0.40725453  0.50589806  0.86519762    -0.22700
C755        C  0.40728218  0.98870510  0.89254283    -0.02700
C756        C  0.38320004  0.97111580  0.89563143    -0.17100
H757        H  0.32905563  0.95014590  0.87230878     0.20900
H758        H  0.38228067  0.52809744  0.80914736     0.19300
H759        H  0.33016692  0.52587127  0.77004134     0.19200
H760        H  0.37783020  0.95664684  0.91550962     0.15100
C761        C  0.99694382  0.65456662  0.69748298     0.30500
C762        C  0.00466700  0.62603757  0.69189767    -0.35800
C763        C  0.99676382  0.61441126  0.66118410     0.16500
C764        C  0.48252659  0.62924445  0.63801449     0.22300
C765        C  0.47373876  0.65722631  0.64392950    -0.33900
C766        C  0.48120631  0.66883587  0.67456509     0.16400
O767        O  0.00357235  0.67041150  0.72343963    -0.26000
C768        C  0.49108883  0.69527408  0.71727631     0.06200
C769        C  0.47728596  0.69542777  0.68687276    -0.30800
O770        O  0.47907634  0.61500407  0.61029808    -0.22700
C771        C  0.49142378  0.59011861  0.61595702    -0.02700
C772        C  0.00185325  0.58838117  0.64732814    -0.17100
H773        H  0.01658266  0.61401315  0.70985499     0.20900
H774        H  0.46247076  0.66939227  0.62554416     0.19300
H775        H  0.46674606  0.71303293  0.67494672     0.19200
H776        H  0.01318151  0.57067836  0.65800004     0.15100
C777        C  0.48234954  0.63019725  0.87220848     0.30500
C778        C  0.47254305  0.65784980  0.86644327    -0.35800
C779        C  0.47949629  0.66970728  0.83585150     0.16500
C780        C  0.99524573  0.65532030  0.81207285     0.22300
C781        C  0.00430746  0.62723932  0.81765386    -0.33900
C782        C  0.99710670  0.61537751  0.84833795     0.16400
O783        O  0.47954741  0.61578358  0.89979643    -0.26000
C784        C  0.99213391  0.59136882  0.89368700     0.06200
C785        C  0.00326444  0.58956994  0.86204339    -0.30800
O786        O  0.00128485  0.67138070  0.78625598    -0.22700
C787        C  0.48858217  0.69633880  0.79319880    -0.02700
C788        C  0.47462055  0.69611372  0.82348046    -0.17100
H789        H  0.46092857  0.66958156  0.88487425     0.20900
H790        H  0.01668450  0.61574254  0.79970245     0.19300
H791        H  0.01503533  0.57224219  0.85123044     0.19200
H792        H  0.46330249  0.71323640  0.83532934     0.15100
C793        C  0.49864709  0.84085953  0.69610259     0.30500
C794        C  0.48925814  0.86871246  0.68982963    -0.35800
C795        C  0.49845073  0.88108755  0.66010769     0.16500
C796        C  0.01598056  0.86695403  0.63817859     0.22300
C797        C  0.02602986  0.83959954  0.64499344    -0.33900
C798        C  0.01713987  0.82754150  0.67481044     0.16400
O799        O  0.49138147  0.82452904  0.72133555    -0.26000
C800        C  0.50496297  0.80016657  0.71595729     0.06200
C801        C  0.02189757  0.80130117  0.68755919    -0.30800
O802        O  0.02036382  0.88139459  0.61083521    -0.22700
C803        C  0.50580483  0.90556376  0.61546917    -0.02700
C804        C  0.49228829  0.90668287  0.64589978    -0.17100
H805        H  0.47520496  0.87966886  0.70652716     0.20900
H806        H  0.03926960  0.82818322  0.62781679     0.19300
H807        H  0.03458795  0.78456903  0.67691207     0.19200
H808        H  0.47883378  0.92331785  0.65543268     0.15100
C809        C  0.00374501  0.88146918  0.85147495     0.30500
C810        C  0.01629527  0.87010411  0.82307586    -0.35800
C811        C  0.00596253  0.84310852  0.81303305     0.16500
C812        C  0.48488969  0.82841287  0.83019965     0.22300
C813        C  0.47340942  0.83924396  0.85932739    -0.33900
C814        C  0.48360679  0.86623753  0.86906680     0.16400
O815        O  0.01115412  0.90557913  0.86636972    -0.26000
C816        C  0.49533419  0.90594692  0.89322595     0.06200
C817        C  0.47825269  0.88158108  0.89663353    -0.30800
O818        O  0.47923428  0.80306686  0.81753519    -0.22700
C819        C  0.49592256  0.80169210  0.79114091    -0.02700
C820        C  0.01422841  0.82560402  0.78808016    -0.17100
H821        H  0.03340068  0.88117450  0.81023214     0.20900
H822        H  0.45812319  0.82712555  0.87385153     0.19300
H823        H  0.46438084  0.87579263  0.91690031     0.19200
H824        H  0.03138824  0.82926664  0.77074335     0.15100
O825        O  0.49564106  0.41914234  0.44873417    -0.74500
O826        O  0.50099028  0.45401746  0.40982075    -0.53500
C827        C  0.99787097  0.42727470  0.41931394     0.79200
O828        O  0.91954278  0.50055536  0.05798777    -0.59100
O829        O  0.95389510  0.49573557  0.09748165    -0.52200
C830        C  0.92787605  0.49902994  0.08808702     0.71200
O831        O  0.92024032  0.98837087  0.44850187    -0.73700
O832        O  0.95476374  0.99585362  0.40972130    -0.54300
C833        C  0.92939538  0.49098408  0.41792632     0.77200
O834        O  0.00649834  0.41875774  0.05954661    -0.58800
O835        O  0.99943695  0.45311210  0.09842917    -0.52000
C836        C  0.00368192  0.42717436  0.08949170     0.73800
Zr837      Zr  0.50131214  0.43817207  0.50441318     2.54700
O838        O  0.96706115  0.39987734  0.51029932    -0.79400
O839        O  0.54267267  0.40674752  0.99801296    -0.92800
Zr840      Zr  0.93967315  0.99381848  0.50386579     2.64700
O841        O  0.90558674  0.45400447  0.50873399    -0.97800
O842        O  0.90049049  0.02701859  0.99804331    -0.79800
O843        O  0.97107574  0.46590866  0.47186333    -0.83200
O844        O  0.97009765  0.46537752  0.03598040    -2.17900
O845        O  0.57901456  0.50480733  0.06007422    -0.66600
O846        O  0.54390427  0.49918251  0.09855218    -0.51200
C847        C  0.56957518  0.00227250  0.09007897     0.72200
O848        O  0.49381001  0.07747622  0.44850762    -0.59500
O849        O  0.49817951  0.04273920  0.40943140    -0.51500
C850        C  0.49522539  0.06886141  0.41850251     0.74000
O851        O  0.99162676  0.07733105  0.05961761    -0.70900
O852        O  0.99661299  0.04249842  0.09842252    -0.49600
C853        C  0.49271242  0.06841548  0.09018310     0.75400
O854        O  0.57916653  0.99904175  0.44942814    -0.66200
O855        O  0.54440646  0.00028352  0.40995615    -0.53400
C856        C  0.57063927  0.99912785  0.41932927     0.73700
Zr857      Zr  0.55905730  0.50234062  0.00484327     2.77500
O858        O  0.59263551  0.04148973  0.50203181    -0.97000
O859        O  0.59719886  0.46790220  0.00948672    -0.77800
Zr860      Zr  0.99602911  0.05743231  0.00431738     2.70100
O861        O  0.53370183  0.09373379  0.00716773    -0.79000
O862        O  0.95972057  0.09397515  0.50164282    -0.98100
Zr863      Zr  0.49953672  0.99829810  0.44012216     2.21500
Zr864      Zr  0.99904165  0.49755779  0.06782609     2.11100
O865        O  0.52741930  0.03033080  0.03704633    -2.46800
O866        O  0.52837903  0.03054174  0.47184440    -0.78800
O867        O  0.53098111  0.46982198  0.03624006    -0.71000
O868        O  0.96749399  0.02607948  0.47206098    -2.32000
O869        O  0.53082507  0.46910007  0.47266369    -2.28200
O870        O  0.96719260  0.02577909  0.03584184    -0.72800
H871        H  0.95880244  0.45292286  0.04991534     0.79200
H872        H  0.95503263  0.03683747  0.45794740     0.80300
H873        H  0.53829805  0.04293046  0.05135236     0.82500
H874        H  0.54277885  0.45761588  0.45872713     0.80100
H875        H  0.90969653  0.04440577  0.48687382     0.43200
H876        H  0.94460974  0.08637204  0.01956399     0.42100
H877        H  0.54782033  0.08812646  0.48805705     0.41800
H878        H  0.58385713  0.05686971  0.01960779     0.39700
H879        H  0.58804667  0.44938872  0.00348364     0.42900
H880        H  0.54866372  0.40774134  0.47842834     0.37700
H881        H  0.95080462  0.40583398  0.49644798     0.43800
H882        H  0.88843638  0.46041545  0.00965545     0.40200
H883        H  0.60922219  0.03667823  0.01170599     0.45100
H884        H  0.52989234  0.38524626  0.49741678     0.43800
H885        H  0.90872998  0.44206265  0.48901681     0.44000
H886        H  0.96721800  0.11031344  0.01101293     0.44300
C887        C  0.99726952  0.27512906  0.27075451     0.03000
C888        C  0.00155763  0.27394564  0.23638531     0.03000
C889        C  0.00111267  0.24713949  0.22078459    -0.17500
C890        C  0.99603653  0.22142541  0.23787291     0.03000
C891        C  0.99319763  0.22242371  0.27261376     0.03000
C892        C  0.99387809  0.24938518  0.28821275    -0.17500
H893        H  0.99208174  0.25056144  0.31469777     0.05000
H894        H  0.00363781  0.24630944  0.19435225     0.05000
C895        C  0.77589151  0.49284696  0.27068564     0.03000
C896        C  0.77556091  0.49770084  0.23624964     0.03000
C897        C  0.74913927  0.50072187  0.22030134    -0.17500
C898        C  0.72304871  0.49833559  0.23713909     0.03000
C899        C  0.72330589  0.49358807  0.27149938     0.03000
C900        C  0.74971745  0.49027103  0.28748938    -0.17500
H901        H  0.74995602  0.48691599  0.31386080     0.05000
H902        H  0.74882639  0.50402750  0.19391896     0.05000
C903        C  0.61607608  0.49552790  0.15773633     0.30500
C904        C  0.62681220  0.48344239  0.18680227    -0.35800
C905        C  0.65443871  0.49252925  0.19617700     0.16500
C906        C  0.67006086  0.51249412  0.17854294     0.22300
C907        C  0.65945575  0.52440747  0.14957136    -0.33900
C908        C  0.63221943  0.51495299  0.13987670     0.16400
O909        O  0.59145064  0.48914248  0.14326048    -0.26000
C910        C  0.59220361  0.50445651  0.11566951     0.06200
C911        C  0.61657867  0.02053421  0.11203596    -0.30800
O912        O  0.69560630  0.51739943  0.19102498    -0.22700
C913        C  0.69661692  0.50047430  0.21720249    -0.02700
C914        C  0.67170396  0.48403184  0.22124425    -0.17100
H915        H  0.61483878  0.46753625  0.20059660     0.20900
H916        H  0.67193119  0.03856401  0.13419969     0.19300
H917        H  0.62267959  0.03427705  0.09174760     0.19200
H918        H  0.66723101  0.46768441  0.23939649     0.15100
C919        C  0.61768780  0.00441433  0.35247614     0.30500
C920        C  0.62936026  0.01565007  0.32330890    -0.35800
C921        C  0.65615792  0.00516629  0.31416097     0.16500
C922        C  0.67024713  0.48287423  0.33154394     0.22300
C923        C  0.65896435  0.47172314  0.36079150    -0.33900
C924        C  0.63294041  0.48299969  0.37102341     0.16400
O925        O  0.59344416  0.01182651  0.36646070    -0.26000
C926        C  0.59289335  0.99672644  0.39418947     0.06200
C927        C  0.61735979  0.47785264  0.39857318    -0.30800
O928        O  0.69490496  0.47614634  0.31836805    -0.22700
C929        C  0.69715385  0.49302569  0.29217474    -0.02700
C930        C  0.67367235  0.01200899  0.28850679    -0.17100
H931        H  0.61856639  0.03174872  0.30907709     0.20900
H932        H  0.67003612  0.45577886  0.37497081     0.19300
H933        H  0.62220295  0.46345205  0.41855636     0.19200
H934        H  0.67024778  0.02797530  0.26975641     0.15100
C935        C  0.88123608  0.49295728  0.15517754     0.30500
C936        C  0.87024985  0.48142201  0.18449524    -0.35800
C937        C  0.84295039  0.49048657  0.19360023     0.16500
C938        C  0.82774381  0.50991794  0.17545376     0.22300
C939        C  0.83853391  0.52120996  0.14599695    -0.33900
C940        C  0.86557735  0.51179911  0.13662235     0.16400
O941        O  0.90580575  0.48660706  0.14128190    -0.26000
C942        C  0.90560500  0.50129902  0.11328631     0.05400
C943        C  0.88110193  0.51727687  0.10909716    -0.30800
O944        O  0.80260093  0.51521923  0.18832873    -0.22700
C945        C  0.80153126  0.49908503  0.21527599    -0.02700
C946        C  0.82589163  0.48268660  0.21926638    -0.17100
H947        H  0.88175085  0.96514286  0.19859322     0.20900
H948        H  0.82644925  0.53588448  0.13110405     0.19300
H949        H  0.87537445  0.53055813  0.08841388     0.19200
H950        H  0.83023390  0.46684288  0.23787861     0.15100
C951        C  0.82957143  0.47916084  0.32900239     0.30500
C952        C  0.84082618  0.46682571  0.35748136    -0.35800
C953        C  0.86774502  0.47708944  0.36750688     0.16500
C954        C  0.88298653  0.49771232  0.35040341     0.22300
C955        C  0.87121460  0.00875357  0.32224056    -0.33900
C956        C  0.84433972  0.50024400  0.31213937     0.16400
O957        O  0.80416353  0.47358040  0.31631595    -0.26000
C958        C  0.80242138  0.49115108  0.29072285     0.06200
C959        C  0.82652088  0.00711766  0.28753730    -0.30800
O960        O  0.90683354  0.00374126  0.36551357    -0.22700
C961        C  0.90748345  0.48853729  0.39200375    -0.02700
C962        C  0.88331150  0.47106143  0.39477992    -0.17100
H963        H  0.82903984  0.45085856  0.37139123     0.20900
H964        H  0.88272101  0.02513442  0.30866392     0.19300
H965        H  0.83064925  0.02371510  0.26958740     0.19200
H966        H  0.87772667  0.45654090  0.41453161     0.15100
C967        C  0.49619595  0.15425756  0.19800513     0.30500
C968        C  0.50392456  0.12573595  0.19241338    -0.35800
C969        C  0.49613283  0.11412928  0.16166393     0.16500
C970        C  0.98222231  0.12977509  0.13757071     0.22300
C971        C  0.97356041  0.15777281  0.14381161    -0.33900
C972        C  0.98121117  0.16910842  0.17456353     0.16400
O973        O  0.50301875  0.17013754  0.22387300    -0.26000
C974        C  0.99158871  0.19517786  0.21745386     0.06200
C975        C  0.97739906  0.19556339  0.18727248    -0.30800
O976        O  0.97871707  0.11565844  0.10974338    -0.22700
C977        C  0.99082679  0.09061324  0.11536269    -0.02700
C978        C  0.50149631  0.08818383  0.14774432    -0.17100
H979        H  0.51588705  0.11373683  0.21034888     0.20900
H980        H  0.96225792  0.17013478  0.12562657     0.19300
H981        H  0.96674307  0.21327960  0.17570985     0.19200
H982        H  0.51294390  0.07055686  0.15841007     0.15100
C983        C  0.98227443  0.13011931  0.37233264     0.30500
C984        C  0.97356523  0.15822958  0.36711246    -0.35800
C985        C  0.98038122  0.17002127  0.33645253     0.16500
C986        C  0.49629659  0.15559400  0.31237089     0.22300
C987        C  0.50483294  0.12727607  0.31742661    -0.33900
C988        C  0.49777269  0.11528272  0.34806338     0.16400
O989        O  0.97949209  0.11565820  0.39988624    -0.26000
C990        C  0.49282320  0.09099234  0.39315809     0.06200
C991        C  0.50355618  0.08921470  0.36133732    -0.30800
O992        O  0.50203956  0.17163014  0.28647559    -0.22700
C993        C  0.98937002  0.19651759  0.29364521    -0.02700
C994        C  0.97621201  0.19666091  0.32441291    -0.17100
H995        H  0.96284349  0.17030970  0.38596953     0.20900
H996        H  0.51665724  0.11566357  0.29907742     0.19300
H997        H  0.51487769  0.07175647  0.35015608     0.19200
H998        H  0.96568135  0.21405030  0.33671470     0.15100
C999        C  0.99729640  0.33991657  0.19489644     0.30500
C1000       C  0.98732776  0.36746964  0.18831109    -0.35800
C1001       C  0.99707487  0.38013888  0.15902325     0.16500
C1002       C  0.51632062  0.36667703  0.13740535     0.22300
C1003       C  0.52650371  0.33936426  0.14433543    -0.33900
C1004       C  0.51713784  0.32709510  0.17387914     0.16400
O1005       O  0.99008659  0.32356971  0.22009454    -0.26000
C1006       C  0.00462731  0.29971375  0.21530931     0.06200
C1007       C  0.52212219  0.30098316  0.18693452    -0.30800
O1008       O  0.52107414  0.38134408  0.11028405    -0.22700
C1009       C  0.00541830  0.40511650  0.11505726    -0.02700
C1010       C  0.99091739  0.40573310  0.14488054    -0.17100
H1011       H  0.97263033  0.37806629  0.20457051     0.20900
H1012       H  0.54026400  0.32818484  0.12750105     0.19300
H1013       H  0.53533494  0.28441427  0.17680944     0.19200
H1014       H  0.97691473  0.42205932  0.15405458     0.15100
C1015       C  0.50251320  0.38246962  0.35030509     0.30500
C1016       C  0.51396219  0.37187942  0.32084848    -0.35800
C1017       C  0.50447045  0.34440990  0.31132475     0.16500
C1018       C  0.98427824  0.32883671  0.32898632     0.22300
C1019       C  0.97284433  0.33946597  0.35821629    -0.33900
C1020       C  0.98348821  0.36609108  0.36859532     0.16400
O1021       O  0.50956000  0.40681420  0.36498966    -0.26000
C1022       C  0.99556186  0.40530180  0.39359094     0.06200
C1023       C  0.97820203  0.38108626  0.39644563    -0.30800
O1024       O  0.97856199  0.30355262  0.31621648    -0.22700
C1025       C  0.99553481  0.30204691  0.29010815    -0.02700
C1026       C  0.51269364  0.32710001  0.28612579    -0.17100
H1027       H  0.52983746  0.38378597  0.30694883     0.20900
H1028       H  0.95733490  0.32736835  0.37244528     0.19300
H1029       H  0.96402598  0.37525067  0.41641454     0.19200
H1030       H  0.52908803  0.33148651  0.26804101     0.15100
O1031       O  0.49574182  0.41924748  0.94840217    -0.74500
O1032       O  0.50191921  0.45410676  0.90964415    -0.53500
C1033       C  0.99785362  0.42757811  0.91862988     0.79200
O1034       O  0.91914715  0.49968493  0.55802528    -0.59100
O1035       O  0.95353605  0.49654929  0.59775825    -0.52200
C1036       C  0.92748012  0.49907220  0.58820228     0.71200
O1037       O  0.92031921  0.98857337  0.94788831    -0.73700
O1038       O  0.95519299  0.99579948  0.90943765    -0.54300
C1039       C  0.92888549  0.49145191  0.91802860     0.77200
O1040       O  0.00724213  0.41894602  0.55996798    -0.58800
O1041       O  0.99873896  0.45316977  0.59860580    -0.52000
C1042       C  0.00379197  0.42732016  0.58983284     0.73800
Zr1043     Zr  0.50231382  0.43845684  0.00378716     2.54700
O1044       O  0.96708772  0.39970738  0.00884469    -0.79400
O1045       O  0.53977936  0.40398147  0.50008387    -0.92800
Zr1046     Zr  0.93939442  0.99355442  0.00357617     2.64700
O1047       O  0.90784276  0.45236165  0.00908467    -0.97800
O1048       O  0.90105554  0.02770732  0.49826570    -0.79800
O1049       O  0.97090743  0.46599646  0.97161823    -0.83200
O1050       O  0.96994160  0.46544882  0.53614007    -2.17900
O1051       O  0.57892710  0.50389044  0.56010175    -0.66600
O1052       O  0.54383466  0.49816225  0.59858623    -0.51200
C1053       C  0.56991306  0.00170231  0.58943461     0.72200
O1054       O  0.49319623  0.07786076  0.94968253    -0.59500
O1055       O  0.49794221  0.04325251  0.91052658    -0.51500
C1056       C  0.49474931  0.06933200  0.91966115     0.74000
O1057       O  0.99174207  0.07714645  0.55976115    -0.70900
O1058       O  0.99764135  0.04246238  0.59856883    -0.49600
C1059       C  0.49381339  0.06897084  0.58930331     0.75400
O1060       O  0.57971742  0.99892017  0.95035648    -0.66200
O1061       O  0.54514252  0.00116050  0.91077287    -0.53400
C1062       C  0.57134365  0.99947664  0.92020756     0.73700
Zr1063     Zr  0.55901237  0.50098018  0.50499400     2.77500
O1064       O  0.59099680  0.04366520  0.00260736    -0.97000
O1065       O  0.59623406  0.46551767  0.50908388    -0.77800
Zr1066     Zr  0.99621445  0.05759633  0.50422469     2.70100
O1067       O  0.53436787  0.09398430  0.50544442    -0.79000
O1068       O  0.95828623  0.09251204  0.00233285    -0.98100
Zr1069     Zr  0.49998096  0.99849912  0.94058645     2.21500
Zr1070     Zr  0.99860145  0.49783122  0.56811946     2.11100
O1071       O  0.52782914  0.03016791  0.53625813    -2.46800
O1072       O  0.52822585  0.03107763  0.97253090    -0.78800
O1073       O  0.53056033  0.46905008  0.53677811    -0.71000
O1074       O  0.96741243  0.02591591  0.97199286    -2.32000
O1075       O  0.53142308  0.46999916  0.97241431    -2.28200
O1076       O  0.96743218  0.02608690  0.53612028    -0.72800
H1077       H  0.95860132  0.45300273  0.55004117     0.79200
H1078       H  0.95499331  0.03671607  0.95786399     0.80300
H1079       H  0.53894283  0.04268261  0.55042808     0.82500
H1080       H  0.54357116  0.45875277  0.95845505     0.80100
H1081       H  0.91008285  0.04591357  0.99565671     0.43200
H1082       H  0.94480751  0.08738253  0.51723624     0.42100
H1083       H  0.54692617  0.08843654  0.98930786     0.41800
H1084       H  0.58743641  0.05392562  0.52070411     0.39700
H1085       H  0.58683938  0.44745212  0.50188339     0.42900
H1086       H  0.54890054  0.40886194  0.97489473     0.37700
H1087       H  0.95195348  0.40459212  0.99287228     0.43800
H1088       H  0.88667844  0.46260784  0.50501988     0.40200
H1089       H  0.61108288  0.03315864  0.50860929     0.45100
H1090       H  0.53408825  0.38729361  0.99907913     0.43800
H1091       H  0.90882457  0.44246189  0.98761086     0.44000
H1092       H  0.96854103  0.11103508  0.51222231     0.44300
C1093       C  0.99695282  0.27502066  0.77083784     0.03000
C1094       C  0.00150277  0.27375999  0.73650441     0.03000
C1095       C  0.00103693  0.24691451  0.72099670    -0.17500
C1096       C  0.99575305  0.22123562  0.73814129     0.03000
C1097       C  0.99291422  0.22236096  0.77289462     0.03000
C1098       C  0.99349493  0.24935985  0.78837790    -0.17500
H1099       H  0.99163073  0.25065055  0.81485046     0.05000
H1100       H  0.00377300  0.24605424  0.69460123     0.05000
C1101       C  0.77559736  0.49337230  0.77068669     0.03000
C1102       C  0.77543136  0.49837254  0.73627853     0.03000
C1103       C  0.74909699  0.50145366  0.72018775    -0.17500
C1104       C  0.72299095  0.49877771  0.73683337     0.03000
C1105       C  0.72309901  0.49383086  0.77112817     0.03000
C1106       C  0.74939463  0.49062721  0.78730598    -0.17500
H1107       H  0.74950911  0.48719638  0.81366828     0.05000
H1108       H  0.74883898  0.50490682  0.69382954     0.05000
C1109       C  0.61645380  0.49435665  0.65703749     0.30500
C1110       C  0.62768258  0.48176432  0.68551670    -0.35800
C1111       C  0.65494353  0.49158498  0.69524328     0.16500
C1112       C  0.66986010  0.51257269  0.67837061     0.22300
C1113       C  0.65875482  0.52502734  0.64994678    -0.33900
C1114       C  0.63179663  0.51495475  0.63997896     0.16400
O1115       O  0.59202691  0.48751635  0.64244341    -0.26000
C1116       C  0.59206545  0.50374654  0.61558929     0.06200
C1117       C  0.61728087  0.01916841  0.61121125    -0.30800
O1118       O  0.69519002  0.51807115  0.69113854    -0.22700
C1119       C  0.69666297  0.50056630  0.71677258    -0.02700
C1120       C  0.67235762  0.48316612  0.72017939    -0.17100
H1121       H  0.61629712  0.46504051  0.69867668     0.20900
H1122       H  0.67276035  0.03667593  0.63319238     0.19300
H1123       H  0.62371482  0.03245888  0.59066419     0.19200
H1124       H  0.66837957  0.46634293  0.73790018     0.15100
C1125       C  0.61818017  0.00408370  0.85290974     0.30500
C1126       C  0.62963803  0.01494525  0.82344188    -0.35800
C1127       C  0.65620579  0.00409896  0.81396649     0.16500
C1128       C  0.67008265  0.48321648  0.83107870     0.22300
C1129       C  0.65891567  0.47238826  0.86053349    -0.33900
C1130       C  0.63305630  0.48396989  0.87085471     0.16400
O1131       O  0.59414947  0.01185852  0.86714577    -0.26000
C1132       C  0.59368553  0.99699576  0.89505558     0.06200
C1133       C  0.61756774  0.47912529  0.89853506    -0.30800
O1134       O  0.69470646  0.47639109  0.81792253    -0.22700
C1135       C  0.69688679  0.49309326  0.79157826    -0.02700
C1136       C  0.67371743  0.01099220  0.78832724    -0.17100
H1137       H  0.61891863  0.03114582  0.80928991     0.20900
H1138       H  0.66997340  0.45649839  0.87481207     0.19300
H1139       H  0.62235900  0.46475925  0.91856731     0.19200
H1140       H  0.67039532  0.02716139  0.76978142     0.15100
C1141       C  0.88145038  0.49445000  0.65592339     0.30500
C1142       C  0.87079136  0.48347876  0.68566519    -0.35800
C1143       C  0.84315702  0.49186800  0.69425099     0.16500
C1144       C  0.82744062  0.51034363  0.67537195     0.22300
C1145       C  0.83788776  0.52102644  0.64549801    -0.33900
C1146       C  0.86518694  0.51212316  0.63653237     0.16400
O1147       O  0.90609139  0.48821019  0.64216441    -0.26000
C1148       C  0.90525662  0.50166988  0.61337982     0.05400
C1149       C  0.88034241  0.51685641  0.60859204    -0.30800
O1150       O  0.80214064  0.51528014  0.68796113    -0.22700
C1151       C  0.80142602  0.49979967  0.71540552    -0.02700
C1152       C  0.82618475  0.48411175  0.71997296    -0.17100
H1153       H  0.88246548  0.96570842  0.69984840     0.20900
H1154       H  0.82532334  0.53476216  0.62994958     0.19300
H1155       H  0.87408385  0.52906981  0.58725085     0.19200
H1156       H  0.83087970  0.46872070  0.73896291     0.15100
C1157       C  0.82889272  0.47976937  0.82935445     0.30500
C1158       C  0.84007229  0.46745753  0.85788575    -0.35800
C1159       C  0.86698405  0.47773486  0.86794230     0.16500
C1160       C  0.88224643  0.49833246  0.85081180     0.22300
C1161       C  0.87147340  0.00958254  0.82190106    -0.33900
C1162       C  0.84366332  0.50090724  0.81258365     0.16400
O1163       O  0.80358140  0.47411143  0.81648693    -0.26000
C1164       C  0.80194325  0.49172840  0.79092634     0.06200
C1165       C  0.82651115  0.00817058  0.78762524    -0.30800
O1166       O  0.90710713  0.00447043  0.86516517    -0.22700
C1167       C  0.90684656  0.48905321  0.89225788    -0.02700
C1168       C  0.88262478  0.47164360  0.89514460    -0.17100
H1169       H  0.82827959  0.45146113  0.87174742     0.20900
H1170       H  0.88248146  0.02672779  0.80903946     0.19300
H1171       H  0.83012266  0.02539954  0.77032638     0.19200
H1172       H  0.87709131  0.45708777  0.91487994     0.15100
C1173       C  0.49694165  0.15471030  0.69728863     0.30500
C1174       C  0.50526001  0.12641546  0.69143269    -0.35800
C1175       C  0.49774126  0.11489587  0.66055871     0.16500
C1176       C  0.98330729  0.12972492  0.63757161     0.22300
C1177       C  0.97481115  0.15777923  0.64356673    -0.33900
C1178       C  0.98166852  0.16892498  0.67460570     0.16400
O1179       O  0.50309744  0.17040123  0.72351541    -0.26000
C1180       C  0.99127393  0.19491784  0.71776596     0.06200
C1181       C  0.97798188  0.19546672  0.68705671    -0.30800
O1182       O  0.98019748  0.11574093  0.60963730    -0.22700
C1183       C  0.99184698  0.09054265  0.61548366    -0.02700
C1184       C  0.50307500  0.08893588  0.64667150    -0.17100
H1185       H  0.51722548  0.11444476  0.70938947     0.20900
H1186       H  0.96422185  0.17032879  0.62498285     0.19300
H1187       H  0.96805910  0.21334063  0.67494503     0.19200
H1188       H  0.51441777  0.07126452  0.65738943     0.15100
C1189       C  0.98331603  0.13043086  0.87313410     0.30500
C1190       C  0.97444340  0.15848934  0.86794446    -0.35800
C1191       C  0.98110210  0.17026610  0.83723732     0.16500
C1192       C  0.49550306  0.15552457  0.81280443     0.22300
C1193       C  0.50417622  0.12728330  0.81817743    -0.33900
C1194       C  0.49711456  0.11546204  0.84892486     0.16400
O1195       O  0.98044061  0.11585260  0.90057339    -0.26000
C1196       C  0.49228459  0.09144186  0.89426039     0.06200
C1197       C  0.50302888  0.08953161  0.86245728    -0.30800
O1198       O  0.50118381  0.17144078  0.78674646    -0.22700
C1199       C  0.98946213  0.19656960  0.79413138    -0.02700
C1200       C  0.97645698  0.19674069  0.82499141    -0.17100
H1201       H  0.96358210  0.17047970  0.88677266     0.20900
H1202       H  0.51610454  0.11559748  0.79998361     0.19300
H1203       H  0.51443604  0.07205534  0.85143641     0.19200
H1204       H  0.96567501  0.21403141  0.83718291     0.15100
C1205       C  0.99781668  0.33989799  0.69518236     0.30500
C1206       C  0.98800519  0.36753610  0.68875900    -0.35800
C1207       C  0.99773134  0.38027123  0.65950552     0.16500
C1208       C  0.51568253  0.36706870  0.63859981     0.22300
C1209       C  0.52622839  0.33992338  0.64565986    -0.33900
C1210       C  0.51655916  0.32739744  0.67492264     0.16400
O1211       O  0.99043315  0.32348407  0.72025480    -0.26000
C1212       C  0.00478680  0.29952994  0.71539728     0.06200
C1213       C  0.52158574  0.30124612  0.68783669    -0.30800
O1214       O  0.52048721  0.38181465  0.61154601    -0.22700
C1215       C  0.00577546  0.40528131  0.61546659    -0.02700
C1216       C  0.99148638  0.40587969  0.64542516    -0.17100
H1217       H  0.97334740  0.37811972  0.70507557     0.20900
H1218       H  0.54039410  0.32899990  0.62905209     0.19300
H1219       H  0.53510076  0.28484845  0.67787604     0.19200
H1220       H  0.97750099  0.42217381  0.65470854     0.15100
C1221       C  0.50338466  0.38209086  0.85046276     0.30500
C1222       C  0.51506726  0.37109148  0.82132800    -0.35800
C1223       C  0.50488729  0.34390909  0.81160050     0.16500
C1224       C  0.98314516  0.32925535  0.82821861     0.22300
C1225       C  0.97126647  0.34031872  0.85703215    -0.33900
C1226       C  0.98227998  0.36680019  0.86754734     0.16400
O1227       O  0.51073317  0.40634553  0.86517572    -0.26000
C1228       C  0.99522144  0.40565045  0.89286899     0.06200
C1229       C  0.97713902  0.38190947  0.89539380    -0.30800
O1230       O  0.97749209  0.30387304  0.81560758    -0.22700
C1231       C  0.99505914  0.30198503  0.79003909    -0.02700
C1232       C  0.51287965  0.32637805  0.78651147    -0.17100
H1233       H  0.53151041  0.38251285  0.80776808     0.20900
H1234       H  0.95532318  0.32855248  0.87099527     0.19300
H1235       H  0.96265576  0.37641301  0.91519367     0.19200
H1236       H  0.52957665  0.33026262  0.76864567     0.15100
O1237       O  0.49498110  0.91869930  0.44894545    -0.74500
O1238       O  0.50069728  0.95348663  0.40998807    -0.53500
C1239       C  0.99723119  0.92744267  0.41891488     0.79200
O1240       O  0.91905331  0.99998248  0.05812527    -0.59100
O1241       O  0.95355603  0.99660986  0.09767831    -0.52200
C1242       C  0.92747033  0.99924677  0.08825489     0.71200
O1243       O  0.92063286  0.48816915  0.44774745    -0.73700
O1244       O  0.95548462  0.49595367  0.40940371    -0.54300
C1245       C  0.92876740  0.99093423  0.41857812     0.77200
O1246       O  0.00773564  0.91895445  0.06003086    -0.58800
O1247       O  0.99988873  0.95332701  0.09869971    -0.52000
C1248       C  0.00481651  0.92747203  0.08993991     0.73800
Zr1249     Zr  0.50120932  0.93835031  0.50422292     2.54700
O1250       O  0.96996293  0.89741003  0.50853895    -0.79400
O1251       O  0.54263789  0.90624987  0.99984668    -0.92800
Zr1252     Zr  0.93953418  0.49379016  0.50338522     2.64700
O1253       O  0.90641249  0.95353548  0.50931705    -0.97800
O1254       O  0.89999773  0.52651354  0.99805080    -0.79800
O1255       O  0.97084593  0.96578821  0.47207307    -0.83200
O1256       O  0.96983676  0.96518991  0.03633453    -2.17900
O1257       O  0.57824270  0.00470736  0.06023452    -0.66600
O1258       O  0.54340451  0.99847848  0.09890676    -0.51200
C1259       C  0.57018632  0.50261321  0.08990396     0.72200
O1260       O  0.49395540  0.57774079  0.44919115    -0.59500
O1261       O  0.49985193  0.54319420  0.41020211    -0.51500
C1262       C  0.49608013  0.56921860  0.41920723     0.74000
O1263       O  0.99095908  0.57665880  0.06022728    -0.70900
O1264       O  0.99764546  0.54191945  0.09878523    -0.49600
C1265       C  0.49204158  0.56781616  0.09043516     0.75400
O1266       O  0.58015764  0.49726066  0.45057343    -0.66200
O1267       O  0.54557733  0.49983305  0.41100319    -0.53400
C1268       C  0.57174282  0.49787869  0.42045002     0.73700
Zr1269     Zr  0.55866183  0.00241807  0.00491574     2.77500
O1270       O  0.59295708  0.54092777  0.50272027    -0.97000
O1271       O  0.59822226  0.96955631  0.00870454    -0.77800
Zr1272     Zr  0.99603779  0.55769760  0.00441470     2.70100
O1273       O  0.53433245  0.59401337  0.00698741    -0.79000
O1274       O  0.95938293  0.59383379  0.50237707    -0.98100
Zr1275     Zr  0.50031628  0.49849922  0.44050836     2.21500
Zr1276     Zr  0.99867352  0.99771669  0.06806069     2.11100
O1277       O  0.52794810  0.53054697  0.03689376    -2.46800
O1278       O  0.52932049  0.53037705  0.47248096    -0.78800
O1279       O  0.53089274  0.96987458  0.03672034    -0.71000
O1280       O  0.96764489  0.52610292  0.47188515    -2.32000
O1281       O  0.53044854  0.96942278  0.47223877    -2.28200
O1282       O  0.96742403  0.52586722  0.03595147    -0.72800
H1283       H  0.95857332  0.95277641  0.05034783     0.79200
H1284       H  0.95523524  0.53686737  0.45771196     0.80300
H1285       H  0.53882306  0.54309046  0.05126142     0.82500
H1286       H  0.54245387  0.95808512  0.45819958     0.80100
H1287       H  0.91088151  0.54693805  0.50209911     0.43200
H1288       H  0.94599359  0.58879868  0.02048937     0.42100
H1289       H  0.52893946  0.61052672  0.50652741     0.41800
H1290       H  0.58717072  0.55522804  0.02040986     0.39700
H1291       H  0.58967494  0.95068302  0.00305685     0.42900
H1292       H  0.54902728  0.90912492  0.47757948     0.37700
H1293       H  0.95070737  0.90564821  0.50654405     0.43800
H1294       H  0.88694092  0.96177334  0.00508665     0.40200
H1295       H  0.61070217  0.53546651  0.00596147     0.45100
H1296       H  0.53034279  0.88596323  0.49559505     0.43800
H1297       H  0.90887485  0.94227758  0.48893668     0.44000
H1298       H  0.96845173  0.61147764  0.00789664     0.44300
C1299       C  0.99784569  0.77481246  0.27124027     0.03000
C1300       C  0.00195892  0.77398325  0.23676688     0.03000
C1301       C  0.00111940  0.74725778  0.22084999    -0.17500
C1302       C  0.99622564  0.72137294  0.23776017     0.03000
C1303       C  0.99364157  0.72216121  0.27249932     0.03000
C1304       C  0.99447128  0.74893052  0.28842983    -0.17500
H1305       H  0.99270414  0.74977400  0.31495883     0.05000
H1306       H  0.00339413  0.74662179  0.19438756     0.05000
C1307       C  0.77557052  0.99198957  0.27095146     0.03000
C1308       C  0.77527292  0.99641087  0.23642717     0.03000
C1309       C  0.74890096  0.99960584  0.22037987    -0.17500
C1310       C  0.72277174  0.99802047  0.23719235     0.03000
C1311       C  0.72304198  0.99404814  0.27172920     0.03000
C1312       C  0.74939178  0.99043229  0.28778800    -0.17500
H1313       H  0.74961461  0.98760588  0.31424519     0.05000
H1314       H  0.74865311  0.00248422  0.19392900     0.05000
C1315       C  0.61584358  0.99516430  0.15737519     0.30500
C1316       C  0.62659901  0.98312088  0.18642953    -0.35800
C1317       C  0.65428465  0.99207615  0.19570453     0.16500
C1318       C  0.67007102  0.01172468  0.17781217     0.22300
C1319       C  0.65942213  0.02364963  0.14880406    -0.33900
C1320       C  0.63198778  0.01449099  0.13937347     0.16400
O1321       O  0.59109088  0.98890261  0.14316669    -0.26000
C1322       C  0.59169295  0.00423610  0.11562597     0.06200
C1323       C  0.61707275  0.52079218  0.11231381    -0.30800
O1324       O  0.69561961  0.01660860  0.19038665    -0.22700
C1325       C  0.69639732  0.00009898  0.21697850    -0.02700
C1326       C  0.67134994  0.98389144  0.22112963    -0.17100
H1327       H  0.61450573  0.96743046  0.20040295     0.20900
H1328       H  0.67194138  0.53941640  0.13507120     0.19300
H1329       H  0.62331611  0.53451648  0.09207056     0.19200
H1330       H  0.66663031  0.96794013  0.23966125     0.15100
C1331       C  0.61853269  0.50342208  0.35337440     0.30500
C1332       C  0.63003658  0.51486770  0.32422802    -0.35800
C1333       C  0.65644033  0.50393259  0.31430971     0.16500
C1334       C  0.67021313  0.98478901  0.33220045     0.22300
C1335       C  0.65871842  0.97376316  0.36136861    -0.33900
C1336       C  0.63224797  0.98450108  0.37073737     0.16400
O1337       O  0.59454583  0.51098882  0.36780345    -0.26000
C1338       C  0.59398461  0.49551929  0.39525398     0.06200
C1339       C  0.61644372  0.97941206  0.39807486    -0.30800
O1340       O  0.69501933  0.97812201  0.31943461    -0.22700
C1341       C  0.69705720  0.99423323  0.29259397    -0.02700
C1342       C  0.67397290  0.51119412  0.28882201    -0.17100
H1343       H  0.61944142  0.53149111  0.31061313     0.20900
H1344       H  0.66989600  0.95824279  0.37606237     0.19300
H1345       H  0.62134416  0.96541120  0.41841520     0.19200
H1346       H  0.67082742  0.52785112  0.27080974     0.15100
C1347       C  0.88103163  0.99271503  0.15544153     0.30500
C1348       C  0.87002756  0.98066314  0.18449823    -0.35800
C1349       C  0.84262913  0.98939793  0.19366577     0.16500
C1350       C  0.82739104  0.00900048  0.17580220     0.22300
C1351       C  0.83820938  0.02082665  0.14664683    -0.33900
C1352       C  0.86533065  0.01174093  0.13719253     0.16400
O1353       O  0.90557129  0.98655671  0.14138157    -0.26000
C1354       C  0.90529213  0.00150863  0.11356782     0.05400
C1355       C  0.88079582  0.01754934  0.10968882    -0.30800
O1356       O  0.80224724  0.01409512  0.18871774    -0.22700
C1357       C  0.80119018  0.99768991  0.21542930    -0.02700
C1358       C  0.82556021  0.98127130  0.21923484    -0.17100
H1359       H  0.88192146  0.46604993  0.19886287     0.20900
H1360       H  0.82607141  0.03564726  0.13201039     0.19300
H1361       H  0.87497192  0.03097091  0.08916407     0.19200
H1362       H  0.82995081  0.96535619  0.23775393     0.15100
C1363       C  0.82877991  0.97840060  0.33001367     0.30500
C1364       C  0.83981267  0.96648922  0.35890070    -0.35800
C1365       C  0.86687093  0.97660890  0.36872511     0.16500
C1366       C  0.88236415  0.99670376  0.35109043     0.22300
C1367       C  0.87162192  0.51019387  0.32185887    -0.33900
C1368       C  0.84388065  0.99894501  0.31268387     0.16400
O1369       O  0.80336354  0.97291436  0.31723672    -0.26000
C1370       C  0.80202863  0.98999455  0.29112021     0.06200
C1371       C  0.82668090  0.50869136  0.28735694    -0.30800
O1372       O  0.90739887  0.50471104  0.36504900    -0.22700
C1373       C  0.90673367  0.98817874  0.39290198    -0.02700
C1374       C  0.88239947  0.97097650  0.39616814    -0.17100
H1375       H  0.82780946  0.95094628  0.37319600     0.20900
H1376       H  0.88289390  0.52698356  0.30868105     0.19300
H1377       H  0.83048348  0.52563233  0.26973771     0.19200
H1378       H  0.87670605  0.95691285  0.41631279     0.15100
C1379       C  0.49706229  0.65397444  0.19764868     0.30500
C1380       C  0.50447840  0.62532398  0.19223209    -0.35800
C1381       C  0.49609370  0.61351381  0.16177067     0.16500
C1382       C  0.98273110  0.62902523  0.13816619     0.22300
C1383       C  0.97419837  0.65708077  0.14409955    -0.33900
C1384       C  0.98168424  0.66858410  0.17477677     0.16400
O1385       O  0.50395929  0.66992369  0.22344696    -0.26000
C1386       C  0.99191942  0.69501422  0.21739396     0.06200
C1387       C  0.97807783  0.69524127  0.18702247    -0.30800
O1388       O  0.97925357  0.61488383  0.11038975    -0.22700
C1389       C  0.99125143  0.58983169  0.11606053    -0.02700
C1390       C  0.50108564  0.58745234  0.14793844    -0.17100
H1391       H  0.51653467  0.61334651  0.21010588     0.20900
H1392       H  0.96314348  0.66939436  0.12567303     0.19300
H1393       H  0.96772583  0.71293508  0.17505200     0.19200
H1394       H  0.51275486  0.56988368  0.15841360     0.15100
C1395       C  0.98202086  0.62945041  0.37143035     0.30500
C1396       C  0.97198310  0.65700947  0.36547727    -0.35800
C1397       C  0.97968090  0.66916908  0.33525877     0.16500
C1398       C  0.49629141  0.65527315  0.31222598     0.22300
C1399       C  0.50530247  0.62717114  0.31769342    -0.33900
C1400       C  0.49824803  0.61529643  0.34839743     0.16400
O1401       O  0.97884888  0.61490161  0.39889224    -0.26000
C1402       C  0.49350605  0.59125582  0.39372351     0.06200
C1403       C  0.50448674  0.58947903  0.36201417    -0.30800
O1404       O  0.50210764  0.67125256  0.28628905    -0.22700
C1405       C  0.98975132  0.69613567  0.29318353    -0.02700
C1406       C  0.97499369  0.69565532  0.32294872    -0.17100
H1407       H  0.95974950  0.66849881  0.38357061     0.20900
H1408       H  0.51752377  0.61565520  0.29961719     0.19300
H1409       H  0.51622419  0.57217439  0.35110150     0.19200
H1410       H  0.96325627  0.71266231  0.33446789     0.15100
C1411       C  0.99911790  0.84065430  0.19599507     0.30500
C1412       C  0.98952326  0.86839865  0.18952575    -0.35800
C1413       C  0.99914261  0.88094145  0.16007762     0.16500
C1414       C  0.51598844  0.86706392  0.13829065     0.22300
C1415       C  0.52676252  0.83998451  0.14518727    -0.33900
C1416       C  0.51773475  0.82752620  0.17475973     0.16400
O1417       O  0.99165899  0.82424462  0.22110358    -0.26000
C1418       C  0.00551954  0.80000284  0.21594688     0.06200
C1419       C  0.52288397  0.80131927  0.18750698    -0.30800
O1420       O  0.52046957  0.88183198  0.11120285    -0.22700
C1421       C  0.00706209  0.90563517  0.11574369    -0.02700
C1422       C  0.99289380  0.90645961  0.14577854    -0.17100
H1423       H  0.97503085  0.87916430  0.20588238     0.20900
H1424       H  0.54063392  0.82906370  0.12824639     0.19300
H1425       H  0.53600363  0.78483557  0.17703886     0.19200
H1426       H  0.97892881  0.92282437  0.15494058     0.15100
C1427       C  0.50378713  0.88132977  0.35139575     0.30500
C1428       C  0.51618676  0.87026311  0.32271244    -0.35800
C1429       C  0.50610559  0.84316255  0.31261303     0.16500
C1430       C  0.98417291  0.82838460  0.32946397     0.22300
C1431       C  0.97217419  0.83932216  0.35827796    -0.33900
C1432       C  0.98266719  0.86608121  0.36853072     0.16400
O1433       O  0.51087650  0.90555548  0.36628490    -0.26000
C1434       C  0.99471355  0.90544089  0.39329596     0.06200
C1435       C  0.97706664  0.88140418  0.39608666    -0.30800
O1436       O  0.97867261  0.80303456  0.31669876    -0.22700
C1437       C  0.99604912  0.80150596  0.29091114    -0.02700
C1438       C  0.51437503  0.82580007  0.28748475    -0.17100
H1439       H  0.53298629  0.88163669  0.30968237     0.20900
H1440       H  0.95638548  0.82738771  0.37228832     0.19300
H1441       H  0.96262930  0.87583777  0.41590537     0.19200
H1442       H  0.53132782  0.82974003  0.26995602     0.15100
O1443       O  0.49622716  0.91928038  0.94884281    -0.74500
O1444       O  0.50155195  0.95408572  0.90984563    -0.53500
C1445       C  0.99754634  0.92747157  0.91899086     0.79200
O1446       O  0.91969986  0.99935776  0.55859896    -0.59100
O1447       O  0.95418572  0.99614550  0.59817617    -0.52200
C1448       C  0.92808417  0.99849294  0.58871332     0.71200
O1449       O  0.92018686  0.48922404  0.94793281    -0.73700
O1450       O  0.95502756  0.49579811  0.90929910    -0.54300
C1451       C  0.92910096  0.99105437  0.91803150     0.77200
O1452       O  0.00691448  0.91876712  0.55977107    -0.58800
O1453       O  0.00011932  0.95331723  0.59851614    -0.52000
C1454       C  0.00434902  0.92735104  0.58968717     0.73800
Zr1455     Zr  0.50238656  0.93825824  0.00446230     2.54700
O1456       O  0.96698091  0.89940171  0.01078459    -0.79400
O1457       O  0.54003795  0.90470246  0.49901783    -0.92800
Zr1458     Zr  0.93960913  0.49381725  0.00345903     2.64700
O1459       O  0.90590582  0.95344853  0.00926852    -0.97800
O1460       O  0.90172492  0.52833015  0.49653507    -0.79800
O1461       O  0.97071015  0.96560524  0.97178704    -0.83200
O1462       O  0.97026345  0.96535986  0.53626341    -2.17900
O1463       O  0.57852409  0.00406223  0.55953000    -0.66600
O1464       O  0.54371788  0.99822520  0.59831573    -0.51200
C1465       C  0.57008980  0.50170910  0.58989890     0.72200
O1466       O  0.49326454  0.57776514  0.94925845    -0.59500
O1467       O  0.49902150  0.54332196  0.91009435    -0.51500
C1468       C  0.49527771  0.56929873  0.91923740     0.74000
O1469       O  0.99083249  0.57714825  0.55990047    -0.70900
O1470       O  0.99652564  0.54245728  0.59871746    -0.49600
C1471       C  0.49380728  0.56823444  0.59008655     0.75400
O1472       O  0.58028225  0.49861150  0.95043493    -0.66200
O1473       O  0.54573644  0.50090424  0.91078716    -0.53400
C1474       C  0.57192186  0.49918788  0.92028676     0.73700
Zr1475     Zr  0.55857214  0.00161214  0.50425912     2.77500
O1476       O  0.59165839  0.54330606  0.00104944    -0.97000
O1477       O  0.59577125  0.96600164  0.50710859    -0.77800
Zr1478     Zr  0.99608985  0.55766452  0.50437552     2.70100
O1479       O  0.53774498  0.59145907  0.50619436    -0.79000
O1480       O  0.95875312  0.59327177  0.00175104    -0.98100
Zr1481     Zr  0.50040601  0.49872050  0.94027305     2.21500
Zr1482     Zr  0.99902350  0.99780355  0.56807198     2.11100
O1483       O  0.52830438  0.52970058  0.53686511    -2.46800
O1484       O  0.52862919  0.53111254  0.97255263    -0.78800
O1485       O  0.53043651  0.96955775  0.53621971    -0.71000
O1486       O  0.96748354  0.52625170  0.97190851    -2.32000
O1487       O  0.53122436  0.96979483  0.97268233    -2.28200
O1488       O  0.96716088  0.52600226  0.53585694    -0.72800
H1489       H  0.95901940  0.95289279  0.55023310     0.79200
H1490       H  0.95499560  0.53705884  0.95787055     0.80300
H1491       H  0.53940040  0.54207884  0.55119259     0.82500
H1492       H  0.54341853  0.95855274  0.95874922     0.80100
H1493       H  0.90887697  0.54574041  0.00064803     0.43200
H1494       H  0.94482803  0.58731555  0.51844239     0.42100
H1495       H  0.54631547  0.59005567  0.98754722     0.41800
H1496       H  0.58697956  0.55392737  0.52053821     0.39700
H1497       H  0.58990996  0.95122379  0.49089500     0.42900
H1498       H  0.54786616  0.90654872  0.97628658     0.37700
H1499       H  0.94969396  0.90628443  0.99943538     0.43800
H1500       H  0.88729729  0.96204449  0.50701515     0.40200
H1501       H  0.61116454  0.53293027  0.51063487     0.45100
H1502       H  0.53421994  0.88695100  0.00340124     0.43800
H1503       H  0.90941039  0.94128386  0.98982653     0.44000
H1504       H  0.96834280  0.61099228  0.51259565     0.44300
C1505       C  0.99777909  0.77503037  0.77131589     0.03000
C1506       C  0.00226312  0.77441840  0.73694664     0.03000
C1507       C  0.00162722  0.74779950  0.72083959    -0.17500
C1508       C  0.99642939  0.72185705  0.73747738     0.03000
C1509       C  0.99319864  0.72238701  0.77213796     0.03000
C1510       C  0.99387952  0.74909667  0.78822979    -0.17500
H1511       H  0.99178503  0.74989979  0.81471042     0.05000
H1512       H  0.00424126  0.74726477  0.69441853     0.05000
C1513       C  0.77582179  0.99239824  0.77086985     0.03000
C1514       C  0.77552026  0.99664431  0.73635164     0.03000
C1515       C  0.74912569  0.99940975  0.72026091    -0.17500
C1516       C  0.72297045  0.99738100  0.73701290     0.03000
C1517       C  0.72322218  0.99347251  0.77157395     0.03000
C1518       C  0.74964532  0.99049320  0.78772235    -0.17500
H1519       H  0.74990780  0.98774065  0.81418875     0.05000
H1520       H  0.74889080  0.00218808  0.69379783     0.05000
C1521       C  0.61593998  0.99461092  0.65714377     0.30500
C1522       C  0.62649453  0.98280151  0.68646978    -0.35800
C1523       C  0.65437042  0.99137764  0.69555229     0.16500
C1524       C  0.67042633  0.01055268  0.67731322     0.22300
C1525       C  0.65999656  0.02219797  0.64807660    -0.33900
C1526       C  0.63245833  0.01333566  0.63877018     0.16400
O1527       O  0.59110290  0.98858761  0.64294398    -0.26000
C1528       C  0.59208592  0.00342827  0.61502023     0.06200
C1529       C  0.61627050  0.52115587  0.61279833    -0.30800
O1530       O  0.69600986  0.01531144  0.68980255    -0.22700
C1531       C  0.69662390  0.99916085  0.71667527    -0.02700
C1532       C  0.67139127  0.98326190  0.72107759    -0.17100
H1533       H  0.61413784  0.96753540  0.70075604     0.20900
H1534       H  0.67064113  0.54096215  0.63609341     0.19300
H1535       H  0.62187194  0.53575775  0.59312639     0.19200
H1536       H  0.66648124  0.96759417  0.73986204     0.15100
C1537       C  0.61868908  0.50435256  0.85309516     0.30500
C1538       C  0.63005258  0.51541527  0.82369887    -0.35800
C1539       C  0.65627680  0.50417785  0.81367953     0.16500
C1540       C  0.67022649  0.98363085  0.83189948     0.22300
C1541       C  0.65891674  0.97293104  0.86136209    -0.33900
C1542       C  0.63272238  0.98414655  0.87114537     0.16400
O1543       O  0.59480410  0.51216123  0.86757356    -0.26000
C1544       C  0.59425722  0.49687500  0.89516193     0.06200
C1545       C  0.61715371  0.97950690  0.89881266    -0.30800
O1546       O  0.69503133  0.97695156  0.81904266    -0.22700
C1547       C  0.69710668  0.99320712  0.79229883    -0.02700
C1548       C  0.67370157  0.51119251  0.78803805    -0.17100
H1549       H  0.61949906  0.53199581  0.80997227     0.20900
H1550       H  0.67010960  0.95742099  0.87605376     0.19300
H1551       H  0.62207022  0.96554059  0.91917715     0.19200
H1552       H  0.67058154  0.52778558  0.76994213     0.15100
C1553       C  0.88131154  0.99184323  0.65554262     0.30500
C1554       C  0.87047286  0.98051479  0.68504352    -0.35800
C1555       C  0.84296847  0.98920670  0.69385833     0.16500
C1556       C  0.82743802  0.00801383  0.67520301     0.22300
C1557       C  0.83801551  0.01895291  0.64552270    -0.33900
C1558       C  0.86527602  0.01000974  0.63651900     0.16400
O1559       O  0.90616453  0.98604197  0.64198531    -0.26000
C1560       C  0.90571934  0.00041796  0.61377496     0.05400
C1561       C  0.88081163  0.01562102  0.60909450    -0.30800
O1562       O  0.80228818  0.01329249  0.68798359    -0.22700
C1563       C  0.80147930  0.99776064  0.71537934    -0.02700
C1564       C  0.82606578  0.98175502  0.71979174    -0.17100
H1565       H  0.88288759  0.46887977  0.70063291     0.20900
H1566       H  0.82569226  0.03316938  0.63029963     0.19300
H1567       H  0.87486248  0.02852666  0.58817944     0.19200
H1568       H  0.83068285  0.96639024  0.73883744     0.15100
C1569       C  0.82979381  0.97798216  0.82861980     0.30500
C1570       C  0.84123323  0.96544283  0.85691072    -0.35800
C1571       C  0.86800711  0.97600965  0.86712714     0.16500
C1572       C  0.88295939  0.99701196  0.85028219     0.22300
C1573       C  0.87090888  0.51084401  0.82230912    -0.33900
C1574       C  0.84432391  0.99942851  0.81208257     0.16400
O1575       O  0.80433291  0.97246815  0.81599222    -0.26000
C1576       C  0.80237341  0.99047259  0.79080933     0.06200
C1577       C  0.82609847  0.50940183  0.78779563    -0.30800
O1578       O  0.90672161  0.50523548  0.86533017    -0.22700
C1579       C  0.90731041  0.98826921  0.89206579    -0.02700
C1580       C  0.88351848  0.97023025  0.89453996    -0.17100
H1581       H  0.82960852  0.94925299  0.87066294     0.20900
H1582       H  0.88220283  0.52761368  0.80912368     0.19300
H1583       H  0.82992930  0.52639685  0.77025235     0.19200
H1584       H  0.87810916  0.95556312  0.91421121     0.15100
C1585       C  0.49648962  0.65416106  0.69787487     0.30500
C1586       C  0.50495288  0.62585272  0.69216963    -0.35800
C1587       C  0.49726681  0.61406433  0.66145496     0.16500
C1588       C  0.98257693  0.62995468  0.63760287     0.22300
C1589       C  0.97438671  0.65812976  0.64347701    -0.33900
C1590       C  0.98200498  0.66955596  0.67413938     0.16400
O1591       O  0.50281018  0.67013580  0.72384710    -0.26000
C1592       C  0.99231561  0.69574516  0.71683888     0.06200
C1593       C  0.97855538  0.69619593  0.68643997    -0.30800
O1594       O  0.97898074  0.61578707  0.60984981    -0.22700
C1595       C  0.99059491  0.59055886  0.61567633    -0.02700
C1596       C  0.50299318  0.58820270  0.64749064    -0.17100
H1597       H  0.51724370  0.61411979  0.71004624     0.20900
H1598       H  0.96346120  0.67056115  0.62505295     0.19300
H1599       H  0.96826039  0.71397675  0.67457091     0.19200
H1600       H  0.51488323  0.57080524  0.65801089     0.15100
C1601       C  0.98243062  0.63035879  0.87194626     0.30500
C1602       C  0.97283726  0.65806183  0.86604084    -0.35800
C1603       C  0.97965147  0.66966993  0.83529300     0.16500
C1604       C  0.49528078  0.65555206  0.81263207     0.22300
C1605       C  0.50460223  0.62756708  0.81810676    -0.33900
C1606       C  0.49737918  0.61551120  0.84864901     0.16400
O1607       O  0.97956356  0.61608237  0.89963747    -0.26000
C1608       C  0.49258377  0.59133172  0.89382782     0.06200
C1609       C  0.50391017  0.58978671  0.86227276    -0.30800
O1610       O  0.50114882  0.67164803  0.78682349    -0.22700
C1611       C  0.98898091  0.69622566  0.79265775    -0.02700
C1612       C  0.97495311  0.69607334  0.82287984    -0.17100
H1613       H  0.96145688  0.67001656  0.88447538     0.20900
H1614       H  0.51718929  0.61628535  0.80016985     0.19300
H1615       H  0.51607189  0.57271647  0.85149404     0.19200
H1616       H  0.96380253  0.71328409  0.83476523     0.15100
C1617       C  0.99932945  0.84118514  0.69645769     0.30500
C1618       C  0.98973374  0.86894009  0.68997107    -0.35800
C1619       C  0.99889525  0.88120583  0.66016387     0.16500
C1620       C  0.51542613  0.86685660  0.63800013     0.22300
C1621       C  0.52528681  0.83935126  0.64460132    -0.33900
C1622       C  0.51631124  0.82715396  0.67434962     0.16400
O1623       O  0.99214415  0.82484719  0.72173660    -0.26000
C1624       C  0.00590504  0.80056090  0.71638847     0.06200
C1625       C  0.52085573  0.80079620  0.68701800    -0.30800
O1626       O  0.51977626  0.88142338  0.61071532    -0.22700
C1627       C  0.00632526  0.90549474  0.61543981    -0.02700
C1628       C  0.99270354  0.90671088  0.64579466    -0.17100
H1629       H  0.97558583  0.87990030  0.70655971     0.20900
H1630       H  0.53841977  0.82793500  0.62731335     0.19300
H1631       H  0.53339560  0.78396777  0.67632507     0.19200
H1632       H  0.97923138  0.92338559  0.65519975     0.15100
C1633       C  0.50340947  0.88186354  0.85116459     0.30500
C1634       C  0.51505000  0.87088477  0.82202386    -0.35800
C1635       C  0.50512217  0.84357733  0.81249702     0.16500
C1636       C  0.98453510  0.82857690  0.82956944     0.22300
C1637       C  0.97210719  0.83981667  0.85794996    -0.33900
C1638       C  0.98270423  0.86650504  0.86823783     0.16400
O1639       O  0.51053045  0.90629538  0.86559166    -0.26000
C1640       C  0.99493481  0.90566944  0.89320289     0.06200
C1641       C  0.97682942  0.88195394  0.89559285    -0.30800
O1642       O  0.97866073  0.80339843  0.81660218    -0.22700
C1643       C  0.99637639  0.80159107  0.79117444    -0.02700
C1644       C  0.51290180  0.82625546  0.78712929    -0.17100
H1645       H  0.53119488  0.88249361  0.80820780     0.20900
H1646       H  0.95585171  0.82818396  0.87158524     0.19300
H1647       H  0.96204165  0.87658081  0.91513681     0.19200
H1648       H  0.52933149  0.83040326  0.76901889     0.15100
loop_ 
_geom_bond_atom_site_label_1 
_geom_bond_atom_site_label_2 
_geom_bond_distance 
_geom_bond_site_symmetry_2 
_ccdc_geom_bond_type 
O1          Zr13   2.443   1_655  S
O1          C827   1.289       .  A
O2         Zr451   2.430       .  S
O2          C827   1.286   1_455  A
C3          O825   1.289       .  A
C3          O826   1.286       .  A
C3          C198   1.469       .  S
O4         Zr634   2.430       .  S
O4            C6   1.286       .  A
O5          Zr40   2.429       .  S
O5            C6   1.286       .  A
C6          C118   1.464       .  S
O7          Zr16   2.437       .  S
O7          C421   1.287       .  A
O8         Zr863   2.433       .  S
O8          C421   1.287       .  A
C9          O419   1.287       .  A
C9          O420   1.288       .  A
C9          C137   1.472       .  S
O10       Zr1043   2.445       .  S
O10          C12   1.288       .  A
O11         Zr40   2.425       .  S
O11          C12   1.286       .  A
C12         C185   1.469       .  S
Zr13       O1040   2.445       .  S
Zr13         O45   2.370       .  S
Zr13        O843   2.369   1_455  S
Zr13       O1050   2.370   1_455  S
Zr13        O249   2.369       .  S
Zr13        O838   2.432   1_455  S
Zr13        O221   2.438       .  S
O14        Zr837   2.435       .  S
O14          H57   0.990       .  S
O15        Zr219   2.436       .  S
O15         H262   0.990   1_554  S
O15         H266   0.990       .  S
Zr16        O622   2.437       .  S
Zr16         O44   2.367   1_565  S
Zr16        O638   2.371       .  S
Zr16        O431   2.366       .  S
Zr16        O252   2.367   1_565  S
Zr16        O429   2.436       .  S
Zr16        O224   2.435   1_565  S
O17        Zr428   2.434       .  S
O17          H61   0.990       .  S
O17         H264   0.990       .  S
O18        Zr222   2.433   1_546  S
O18         H257   0.990       .  S
O19        Zr837   2.372       .  S
O19        Zr428   2.364       .  S
O19       Zr1275   2.388       .  S
O20         Zr40   2.388       .  S
O20       Zr1043   2.368       .  S
O20        Zr634   2.367       .  S
O20          H47   0.966       .  S
O21         Zr33   2.433       .  S
O21         C435   1.287       .  A
O22        Zr864   2.440   1_455  S
O22         C435   1.288       .  A
C23         O433   1.288       .  A
C23         O434   1.288   1_545  A
C23         C498   1.473       .  S
O24       Zr1066   2.442       .  S
O24          C26   1.288       .  A
O25         Zr39   2.429   1_545  S
O25          C26   1.287       .  A
C26         C166   1.469       .  S
O27         Zr36   2.447       .  S
O27         C853   1.288       .  A
O28        Zr452   2.437   1_545  S
O28         C853   1.288       .  A
C29         O851   1.288       .  A
C29         O852   1.288       .  A
C29         C977   1.474       .  S
O30        Zr651   2.438   1_565  S
O30          C32   1.288       .  A
O31         Zr39   2.438   1_455  S
O31          C32   1.288       .  A
C32         C102   1.469       .  S
Zr33        O648   2.441   1_554  S
Zr33         O43   2.374       .  S
Zr33        O453   2.374       .  S
Zr33        O660   2.374   1_554  S
Zr33        O251   2.372   1_554  S
Zr33         O35   2.434       .  S
Zr33        O652   2.439       .  S
O34        Zr651   2.434       .  S
O34         H260   0.990       .  S
O34         H265   0.990       .  S
O35          H55   0.990       .  S
Zr36       O1054   2.439   1_554  S
Zr36         O46   2.369       .  S
Zr36       O1072   2.377   1_554  S
Zr36        O865   2.368       .  S
Zr36        O250   2.369   1_554  S
Zr36        O861   2.434       .  S
Zr36        O244   2.435       .  S
O37        Zr860   2.435   1_455  S
O37         H259   0.990   1_554  S
O38        Zr242   2.436       .  S
O38         H258   0.990       .  S
O38         H268   0.990       .  S
Zr39        O414   2.426   1_655  S
Zr39        O832   2.435       .  S
Zr39         O42   2.383   1_665  S
Zr39       O1255   2.387       .  S
Zr39        O868   2.387   1_565  S
Zr39        O457   2.388   1_655  S
Zr40        O846   2.441       .  S
Zr40        O440   2.428       .  S
Zr40       O1277   2.388       .  S
Zr40        O867   2.378       .  S
Zr40        O458   2.386       .  S
O41        Zr445   2.373       .  S
O41        Zr860   2.369   1_455  S
O41       Zr1276   2.389   1_445  S
O41          H49   0.966       .  S
O42        Zr651   2.373       .  S
O42       Zr1066   2.375   1_455  S
O43        Zr219   2.370       .  S
O43        Zr864   2.383   1_455  S
O44        Zr242   2.369       .  S
O44        Zr863   2.387   1_545  S
O44          H48   0.966       .  S
O45        Zr239   2.371       .  S
O45        Zr451   2.389       .  S
O45          H50   0.967       .  S
O46        Zr222   2.369   1_545  S
O46        Zr452   2.384   1_545  S
H51         O224   0.990       .  S
H52         O244   0.990       .  S
H53         O243   0.990       .  S
H54         O240   0.990       .  S
H56         O221   0.990       .  S
H58         O223   0.990       .  S
H59         O240   0.990       .  S
H60         O221   0.990       .  S
H62         O244   0.990       .  S
C63         C201   1.489       .  S
C63          C64   1.416       .  A
C63          C68   1.406       .  A
C64         C182   1.488       .  S
C64          C65   1.406       .  A
C65          C66   1.408       .  A
C65          H70   1.083       .  S
C66         C150   1.494       .  S
C66          C67   1.420       .  A
C67         C169   1.493       .  S
C67          C68   1.411       .  A
C68          H69   1.083       .  S
C71         C134   1.489       .  S
C71          C72   1.419       .  A
C71          C76   1.409       .  A
C72         C121   1.487       .  S
C72          C73   1.405       .  A
C73          C74   1.405       .  A
C73          H78   1.085       .  S
C74          C89   1.483       .  S
C74          C75   1.418       .  A
C75         C105   1.492       .  S
C75          C76   1.408       .  A
C76          H77   1.084       .  S
C79          C84   1.381       .  A
C79          C80   1.406       .  A
C79          O85   1.322       .  A
C80          C81   1.406       .  A
C80          H91   1.082       .  S
C81          C90   1.364       .  A
C81          C82   1.379       .  A
C82          C83   1.399       .  A
C82          O88   1.315       .  A
C83          C84   1.399       .  A
C83         H504   1.082       .  S
C84         C499   1.356       .  A
O85          C86   1.332       .  A
C86         C435   1.469       .  S
C86         C499   1.389       .  A
C87         C496   1.357       .  A
C87         C498   1.390       .  A
C87          H93   1.083       .  S
O88          C89   1.330       .  A
C89          C90   1.395       .  A
C90          H94   1.082       .  S
H92         C495   1.082       .  S
C95          C96   1.406       .  A
C95         C512   1.381   1_545  A
C95         O101   1.323       .  A
C96          C97   1.406       .  A
C96         H107   1.082       .  S
C97         C106   1.364       .  A
C97         C510   1.379   1_545  A
C98          C99   1.403       .  A
C98         C509   1.379       .  A
C98         O104   1.319       .  A
C99         C100   1.403       .  A
C99         H108   1.082       .  S
C100        C103   1.360       .  A
C100        C507   1.380       .  A
O101        C102   1.332   1_545  A
C102        C515   1.390       .  A
C103        C514   1.391       .  A
C103        H109   1.083       .  S
O104        C105   1.332       .  A
C105        C518   1.397       .  A
C106        C517   1.397   1_545  A
C106        H110   1.082       .  S
C111        C116   1.381       .  A
C111        C112   1.404       .  A
C111        O117   1.320       .  A
C112        C113   1.404       .  A
C112        H535   1.082       .  S
C113        C122   1.363       .  A
C113        C114   1.379       .  A
C114        C115   1.401       .  A
C114        O120   1.316       .  A
C115        C116   1.400       .  A
C115        H124   1.082       .  S
C116        C119   1.357       .  A
O117        C118   1.330       .  A
C118        C119   1.389       .  A
C119        H125   1.083       .  S
O120        C121   1.332       .  A
C121        C122   1.395       .  A
C122        H126   1.082       .  S
H123        C524   1.082       .  S
C127        C132   1.379       .  A
C127        C128   1.400       .  A
C127        O133   1.317       .  A
C128        C129   1.400       .  A
C128        H139   1.082       .  S
C129        C138   1.358       .  A
C129        C130   1.380       .  A
C130        C543   1.408       .  A
C130        O548   1.324       .  A
C131        C542   1.406   1_545  A
C131        C544   1.406   1_545  A
C131        H140   1.082       .  S
C132        C543   1.408       .  A
C132        C547   1.366       .  A
O133        C134   1.331       .  A
C134        C547   1.398       .  A
C135        C544   1.364   1_545  A
C135        C546   1.396   1_545  A
C135        H141   1.082       .  S
O136        C542   1.322   1_545  A
O136        C549   1.332   1_545  A
C137        C138   1.390       .  A
C137        O548   1.333       .  A
C138        H142   1.083       .  S
C143        C144   1.407   1_655  A
C143        C972   1.378       .  A
C143        O149   1.324   1_655  A
C144        C145   1.407   1_455  A
C144        H155   1.082       .  S
C145        C154   1.366   1_655  A
C145        C970   1.380       .  A
C146        C147   1.401       .  A
C146        C969   1.380       .  A
C146        O152   1.318       .  A
C147        C148   1.401       .  A
C147        H156   1.082       .  S
C148        C151   1.357       .  A
C148        C967   1.378       .  A
O149        C974   1.333   1_455  A
C150        C151   1.394       .  A
C150        O973   1.333       .  A
C151        H157   1.083       .  S
O152        C153   1.331       .  A
C153        C853   1.475       .  S
C153        C978   1.394       .  A
C154        C977   1.393   1_455  A
C154        H158   1.082       .  S
C159        C160   1.400       .  A
C159        C988   1.381       .  A
C159        O165   1.315       .  A
C160        C161   1.399       .  A
C160        H171   1.082       .  S
C161        C170   1.357       .  A
C161        C986   1.377       .  A
C162        C163   1.406   1_655  A
C162        C985   1.377       .  A
C162        O168   1.320   1_655  A
C163        C164   1.406   1_455  A
C163        H172   1.082       .  S
C164        C167   1.366   1_655  A
C164        C983   1.381       .  A
O165        C990   1.329       .  A
C166        C167   1.393   1_655  A
C166        O989   1.329       .  A
C167        H173   1.082       .  S
O168        C993   1.332   1_455  A
C169        C170   1.396       .  A
C169        O992   1.332       .  A
C170        H174   1.082       .  S
C175        C176   1.406       .  A
C175       C1004   1.379       .  A
C175        O181   1.322       .  A
C176        C177   1.406       .  A
C176        H187   1.082       .  S
C177        C186   1.364       .  A
C177       C1002   1.381       .  A
C178        C179   1.401       .  A
C178       C1001   1.381   1_455  A
C178        O184   1.317       .  A
C179        C180   1.401       .  A
C179        H188   1.082       .  S
C180        C183   1.357       .  A
C180        C999   1.379   1_455  A
O181        C182   1.333       .  A
C182       C1007   1.394       .  A
C183       C1006   1.394       .  A
C183        H189   1.082       .  S
O184       C1009   1.330       .  A
C185        C186   1.392       .  A
C185       O1008   1.330       .  A
C186        H190   1.082       .  S
C191        C192   1.409       .  A
C191       C1020   1.380   1_455  A
C191        O197   1.323       .  A
C192        C193   1.408       .  A
C192        H203   1.082       .  S
C193        C202   1.368       .  A
C193       C1018   1.379   1_455  A
C194        C195   1.400       .  A
C194       C1017   1.379       .  A
C194        O200   1.315       .  A
C195        C196   1.399       .  A
C195        H204   1.082       .  S
C196        C199   1.358       .  A
C196       C1015   1.380       .  A
O197       C1022   1.333   1_455  A
C198        C199   1.389       .  A
C198       O1021   1.333       .  A
C199        H205   1.083       .  S
O200        C201   1.331       .  A
C201       C1026   1.397       .  A
C202       C1025   1.397   1_455  A
C202        H206   1.082       .  S
O207       Zr219   2.445   1_656  S
O207       C1033   1.289       .  A
O208       Zr657   2.431   1_455  S
O208       C1033   1.287   1_455  A
C209       O1031   1.288       .  A
C209       O1032   1.287       .  A
C209        C404   1.470       .  S
O210       Zr428   2.433       .  S
O210        C212   1.286       .  A
O211       Zr246   2.430       .  S
O211        C212   1.287       .  A
C212        C324   1.466       .  S
O213       Zr222   2.436   1_556  S
O213        C627   1.287       .  A
O214      Zr1069   2.438       .  S
O214        C627   1.288       .  A
C215        O625   1.287       .  A
C215        O626   1.288       .  A
C215        C343   1.471       .  S
O216       Zr837   2.449       .  S
O216        C218   1.289       .  A
O217       Zr246   2.426       .  S
O217        C218   1.286       .  A
C218        C391   1.470       .  S
Zr219       O834   2.446       .  S
Zr219      O1049   2.371   1_454  S
Zr219       O844   2.369   1_455  S
Zr219       O251   2.369   1_554  S
Zr219      O1044   2.433   1_455  S
O220      Zr1043   2.436       .  S
O220        H263   0.990   1_554  S
Zr222       O416   2.440       .  S
Zr222       O432   2.366       .  S
Zr222       O637   2.364   1_554  S
Zr222       O250   2.368   1_564  S
Zr222       O635   2.434       .  S
O223       Zr634   2.434       .  S
O223        H267   0.990   1_554  S
O225      Zr1043   2.369   1_556  S
O225       Zr634   2.362   1_556  S
O225      Zr1481   2.386       .  S
O226       Zr837   2.371       .  S
O226       Zr428   2.373       .  S
O226       Zr246   2.389       .  S
O226        H253   0.966       .  S
O227       Zr239   2.436       .  S
O227        C641   1.287       .  A
O228      Zr1070   2.439   1_455  S
O228        C641   1.288       .  A
C229        O639   1.288       .  A
C229        O640   1.288   1_545  A
C229        C704   1.472       .  S
O230       Zr860   2.434   1_556  S
O230        C232   1.286       .  A
O231       Zr245   2.430   1_545  S
O231        C232   1.287       .  A
C232        C372   1.466       .  S
O233       Zr242   2.446       .  S
O233       C1059   1.288       .  A
O234       Zr658   2.438   1_545  S
O234       C1059   1.289       .  A
C235       O1057   1.289       .  A
C235       O1058   1.288       .  A
C235       C1183   1.473       .  S
O236       Zr445   2.441   1_566  S
O236        C238   1.288       .  A
O237       Zr245   2.439   1_445  S
O237        C238   1.288   1_545  A
C238        C308   1.471       .  S
Zr239       O442   2.442       .  S
Zr239       O659   2.377       .  S
Zr239       O454   2.374       .  S
Zr239       O249   2.373       .  S
Zr239       O446   2.436       .  S
Zr239       O241   2.434       .  S
O240       Zr445   2.435       .  S
O241        H261   0.990       .  S
Zr242       O848   2.441       .  S
Zr242       O866   2.376       .  S
Zr242      O1071   2.371       .  S
Zr242       O252   2.368       .  S
Zr242      O1067   2.434       .  S
O243      Zr1066   2.434   1_455  S
Zr245       O620   2.425   1_655  S
Zr245      O1038   2.435       .  S
Zr245      O1461   2.391       .  S
Zr245       O248   2.383   1_665  S
Zr245      O1074   2.388   1_565  S
Zr245       O663   2.390   1_655  S
Zr246      O1052   2.440       .  S
Zr246       O646   2.432       .  S
Zr246      O1483   2.386       .  S
Zr246      O1073   2.382       .  S
Zr246       O664   2.385       .  S
O247       Zr651   2.370       .  S
O247      Zr1066   2.368   1_455  S
O247      Zr1482   2.387   1_445  S
O247        H255   0.966       .  S
O248       Zr445   2.372   1_556  S
O248       Zr860   2.375   1_456  S
O249      Zr1070   2.383   1_455  S
O250      Zr1069   2.388   1_545  S
O250        H254   0.966       .  S
O251       Zr657   2.389   1_455  S
O251        H256   0.967       .  S
O252       Zr658   2.385   1_545  S
C269        C407   1.486       .  S
C269        C270   1.413       .  A
C269        C274   1.405       .  A
C270        C388   1.485       .  S
C270        C271   1.404       .  A
C271        C272   1.408       .  A
C271        H276   1.083       .  S
C272        C356   1.491       .  S
C272        C273   1.421       .  A
C273        C375   1.494       .  S
C273        C274   1.412       .  A
C274        H275   1.083       .  S
C277        C340   1.490       .  S
C277        C278   1.420       .  A
C277        C282   1.410       .  A
C278        C327   1.489       .  S
C278        C279   1.406       .  A
C279        C280   1.406       .  A
C279        H284   1.085       .  S
C280        C295   1.487       .  S
C280        C281   1.419       .  A
C281        C311   1.491       .  S
C281        C282   1.409       .  A
C282        H283   1.084       .  S
C285        C290   1.381       .  A
C285        C286   1.406       .  A
C285        O291   1.323       .  A
C286        C287   1.406       .  A
C286        H297   1.082       .  S
C287        C296   1.364       .  A
C287        C288   1.379       .  A
C288        C289   1.401       .  A
C288        O294   1.317       .  A
C289        C290   1.401       .  A
C289        H710   1.082       .  S
C290        C705   1.358       .  A
O291        C292   1.332       .  A
C292        C641   1.470       .  S
C292        C705   1.390       .  A
C293        C702   1.357       .  A
C293        C704   1.389       .  A
C293        H299   1.083       .  S
O294        C295   1.331       .  A
C295        C296   1.396       .  A
C296        H300   1.082       .  S
H298        C701   1.082       .  S
C301        C718   1.381   1_545  A
C301        C302   1.407       .  A
C301        O307   1.323       .  A
C302        C303   1.406       .  A
C302        H313   1.082       .  S
C303        C312   1.364       .  A
C303        C716   1.379   1_545  A
C304        C715   1.379       .  A
C304        C305   1.402       .  A
C304        O310   1.319       .  A
C305        C306   1.402       .  A
C305        H314   1.082       .  S
C306        C713   1.380       .  A
C306        C309   1.359       .  A
O307        C308   1.332   1_545  A
C308        C721   1.390       .  A
C309        C720   1.390       .  A
C309        H315   1.083       .  S
O310        C311   1.332       .  A
C311        C724   1.397       .  A
C312        C723   1.397   1_545  A
C312        H316   1.082       .  S
C317        C322   1.381       .  A
C317        C318   1.404       .  A
C317        O323   1.320       .  A
C318        C319   1.404       .  A
C318        H741   1.082       .  S
C319        C328   1.362       .  A
C319        C320   1.379       .  A
C320        C321   1.403       .  A
C320        O326   1.318       .  A
C321        C322   1.402       .  A
C321        H330   1.082       .  S
C322        C325   1.359       .  A
O323        C324   1.330       .  A
C324        C325   1.390       .  A
C325        H331   1.083       .  S
O326        C327   1.333       .  A
C327        C328   1.395       .  A
C328        H332   1.082       .  S
H329        C730   1.082       .  S
C333        C338   1.379       .  A
C333        C334   1.402       .  A
C333        O339   1.319       .  A
C334        C335   1.402       .  A
C334        H345   1.082       .  S
C335        C344   1.359       .  A
C335        C336   1.380       .  A
C336        C749   1.407       .  A
C336        O754   1.323       .  A
C337        C748   1.406   1_545  A
C337        C750   1.405   1_545  A
C337        H346   1.082       .  S
C338        C749   1.407       .  A
C338        C753   1.364       .  A
O339        C340   1.332       .  A
C340        C753   1.397       .  A
C341        C750   1.363   1_545  A
C341        C752   1.395   1_545  A
C341        H347   1.082       .  S
O342        C748   1.323   1_545  A
O342        C755   1.332   1_545  A
C343        C344   1.390       .  A
C343        O754   1.333       .  A
C344        H348   1.083       .  S
C349       C1178   1.378       .  A
C349        C350   1.408   1_655  A
C349        O355   1.324   1_655  A
C350        C351   1.408   1_455  A
C350        H361   1.082       .  S
C351        C360   1.367   1_655  A
C351       C1176   1.381       .  A
C352       C1175   1.380       .  A
C352        C353   1.401       .  A
C352        O358   1.318       .  A
C353        C354   1.400       .  A
C353        H362   1.082       .  S
C354       C1173   1.378       .  A
C354        C357   1.356       .  A
O355       C1180   1.334   1_455  A
C356        C357   1.395       .  A
C356       O1179   1.333       .  A
C357        H363   1.083       .  S
O358        C359   1.330       .  A
C359       C1059   1.475       .  S
C359       C1184   1.394       .  A
C360       C1183   1.394   1_455  A
C360        H364   1.082       .  S
C365       C1194   1.381       .  A
C365        C366   1.400       .  A
C365        O371   1.316       .  A
C366        C367   1.400       .  A
C366        H377   1.082       .  S
C367        C376   1.356       .  A
C367       C1192   1.377       .  A
C368       C1191   1.377       .  A
C368        C369   1.405   1_655  A
C368        O374   1.319   1_655  A
C369        C370   1.404   1_455  A
C369        H378   1.082       .  S
C370       C1189   1.381       .  A
C370        C373   1.365   1_655  A
O371       C1196   1.329       .  A
C372        C373   1.392   1_655  A
C372       O1195   1.329       .  A
C373        H379   1.082       .  S
O374       C1199   1.331   1_455  A
C375        C376   1.396       .  A
C375       O1198   1.333       .  A
C376        H380   1.082       .  S
C381       C1210   1.379       .  A
C381        C382   1.405       .  A
C381        O387   1.321       .  A
C382        C383   1.405       .  A
C382        H393   1.082       .  S
C383        C392   1.364       .  A
C383       C1208   1.381       .  A
C384       C1207   1.380   1_455  A
C384        C385   1.403       .  A
C384        O390   1.318       .  A
C385        C386   1.402       .  A
C385        H394   1.082       .  S
C386       C1205   1.379   1_455  A
C386        C389   1.359       .  A
O387        C388   1.333       .  A
C388       C1213   1.393       .  A
C389       C1212   1.395       .  A
C389        H395   1.083       .  S
O390       C1215   1.331       .  A
C391        C392   1.393       .  A
C391       O1214   1.330       .  A
C392        H396   1.082       .  S
C397       C1226   1.380   1_455  A
C397        C398   1.407       .  A
C397        O403   1.322       .  A
C398        C399   1.406       .  A
C398        H409   1.082       .  S
C399        C408   1.367       .  A
C399       C1224   1.379   1_455  A
C400       C1223   1.379       .  A
C400        C401   1.400       .  A
C400        O406   1.315       .  A
C401        C402   1.399       .  A
C401        H410   1.082       .  S
C402       C1221   1.380       .  A
C402        C405   1.357       .  A
O403       C1228   1.332   1_455  A
C404        C405   1.389       .  A
C404       O1227   1.333       .  A
C405        H411   1.083       .  S
O406        C407   1.330       .  A
C407       C1232   1.397       .  A
C408       C1231   1.396   1_455  A
C408        H412   1.082       .  S
O413       Zr425   2.446   1_655  S
O413       C1239   1.289       .  A
O414       C1239   1.286   1_455  A
C415       O1237   1.289       .  A
C415       O1238   1.286       .  A
C415        C610   1.468       .  S
O416        C418   1.288       .  A
O417       Zr452   2.426       .  S
O417        C418   1.286       .  A
C418        C530   1.466   1_565  S
O419       Zr428   2.436       .  S
O420      Zr1275   2.440       .  S
C421        C549   1.469       .  S
O422      Zr1455   2.446       .  S
O422        C424   1.288       .  A
O423       Zr452   2.425       .  S
O423        C424   1.286       .  A
C424        C597   1.469       .  S
Zr425      O1452   2.445       .  S
Zr425      O1255   2.371   1_455  S
Zr425      O1462   2.373   1_455  S
Zr425       O661   2.368       .  S
Zr425       O457   2.364       .  S
Zr425      O1250   2.432   1_455  S
Zr425       O633   2.437       .  S
O426      Zr1249   2.434       .  S
O426        H469   0.990       .  S
O427       Zr631   2.438   1_556  S
O427        H674   0.990       .  S
O427        H678   0.990       .  S
Zr428       O456   2.365       .  S
Zr428       O664   2.367       .  S
Zr428       O636   2.434       .  S
O429        H676   0.990       .  S
O429        H473   0.990       .  S
O430       Zr634   2.434   1_556  S
O430        H669   0.990       .  S
O431      Zr1249   2.369       .  S
O431       Zr863   2.388       .  S
O432      Zr1455   2.370       .  S
O432       Zr452   2.390       .  S
O432        H459   0.965       .  S
O433       Zr445   2.440       .  S
O434      Zr1276   2.439   1_455  S
O436      Zr1478   2.445       .  S
O436        C438   1.288       .  A
O437       Zr451   2.428   1_655  S
O437        C438   1.287       .  A
C438        C578   1.470       .  S
O439       Zr448   2.453       .  S
O439       C1265   1.289       .  A
O440       C1265   1.287       .  A
C441       O1263   1.290       .  A
C441       O1264   1.287       .  A
C441       C1389   1.474       .  S
O442        C444   1.288       .  A
O443       Zr451   2.442       .  S
O443        C444   1.288       .  A
C444        C514   1.474       .  S
Zr445       O663   2.372   1_544  S
Zr445       O455   2.371   1_545  S
Zr445       O447   2.433   1_545  S
O446        H672   0.990       .  S
O446        H677   0.990       .  S
O447        H467   0.990   1_554  S
Zr448      O1466   2.443   1_554  S
Zr448      O1484   2.378   1_554  S
Zr448      O1277   2.371       .  S
Zr448       O458   2.366       .  S
Zr448       O662   2.371   1_554  S
Zr448      O1273   2.435       .  S
Zr448       O656   2.437       .  S
O449      Zr1272   2.434   1_455  S
O449        H671   0.990   1_554  S
O450       Zr654   2.438       .  S
O450        H670   0.990       .  S
O450        H680   0.990       .  S
Zr451      O1244   2.439   1_455  S
Zr451       O843   2.388   1_455  S
Zr451       O454   2.386       .  S
Zr451      O1280   2.390   1_455  S
Zr452      O1258   2.435       .  S
Zr452       O865   2.386   1_565  S
Zr452      O1279   2.384       .  S
O453      Zr1272   2.370   1_455  S
O453       Zr864   2.390   1_455  S
O453        H461   0.966       .  S
O454      Zr1478   2.376   1_455  S
O455       Zr631   2.370       .  S
O455      Zr1276   2.385   1_455  S
O456       Zr654   2.370       .  S
O456      Zr1275   2.388       .  S
O456        H460   0.966       .  S
O457       Zr651   2.373   1_565  S
O457        H462   0.967       .  S
O458       Zr634   2.370       .  S
H463        O636   0.990       .  S
H464        O656   0.990       .  S
H465        O655   0.990       .  S
H466        O652   0.990       .  S
H468        O633   0.990       .  S
H470        O635   0.990       .  S
H471        O652   0.990       .  S
H472        O633   0.990       .  S
H474        O656   0.990       .  S
C475        C613   1.487       .  S
C475        C476   1.415       .  A
C475        C480   1.405       .  A
C476        C594   1.489       .  S
C476        C477   1.407       .  A
C477        C478   1.410       .  A
C477        H482   1.083       .  S
C478        C562   1.494       .  S
C478        C479   1.420       .  A
C479        C581   1.494       .  S
C479        C480   1.411       .  A
C480        H481   1.083       .  S
C483        C546   1.485       .  S
C483        C484   1.419       .  A
C483        C488   1.408       .  A
C484        C533   1.487       .  S
C484        C485   1.403   1_565  A
C485        C486   1.404   1_545  A
C485        H490   1.085       .  S
C486        C501   1.483   1_565  S
C486        C487   1.418       .  A
C487        C517   1.490       .  S
C487        C488   1.407       .  A
C488        H489   1.085       .  S
C491        C496   1.381   1_565  A
C491        C492   1.407       .  A
C491        O497   1.323       .  A
C492        C493   1.406       .  A
C492        H503   1.082       .  S
C493        C502   1.363       .  A
C493        C494   1.379   1_565  A
C494        C495   1.400       .  A
C494        O500   1.316       .  A
C495        C496   1.400       .  A
O497        C498   1.333   1_565  A
C499        H505   1.083       .  S
O500        C501   1.331       .  A
C501        C502   1.395   1_545  A
C502        H506   1.082       .  S
C507        C508   1.408       .  A
C507        O513   1.325       .  A
C508        C509   1.408       .  A
C508        H519   1.082       .  S
C509        C518   1.366       .  A
C510        C511   1.402       .  A
C510        O516   1.318       .  A
C511        C512   1.401       .  A
C511        H520   1.082       .  S
C512        C515   1.358       .  A
O513        C514   1.333       .  A
C515        H521   1.083       .  S
O516        C517   1.332       .  A
C518        H522   1.082       .  S
C523        C528   1.381   1_565  A
C523        C524   1.405       .  A
C523        O529   1.321       .  A
C524        C525   1.404       .  A
C525        C534   1.363       .  A
C525        C526   1.379   1_565  A
C526        C527   1.401       .  A
C526        O532   1.316       .  A
C527        C528   1.400       .  A
C527        H536   1.082       .  S
C528        C531   1.358       .  A
O529        C530   1.331   1_565  A
C530        C531   1.389       .  A
C531        H537   1.083       .  S
O532        C533   1.332   1_545  A
C533        C534   1.396       .  A
C534        H538   1.082       .  S
C539        C544   1.379       .  A
C539        C540   1.400       .  A
C539        O545   1.316       .  A
C540        C541   1.400       .  A
C540        H551   1.082       .  S
C541        C550   1.357       .  A
C541        C542   1.381       .  A
C543        H552   1.082       .  S
O545        C546   1.331       .  A
C547        H553   1.082       .  S
C549        C550   1.389       .  A
C550        H554   1.083       .  S
C555       C1384   1.378       .  A
C555        C556   1.410   1_655  A
C555        O561   1.324   1_655  A
C556        C557   1.409   1_455  A
C556        H567   1.082       .  S
C557        C566   1.368   1_655  A
C557       C1382   1.380       .  A
C558       C1381   1.381       .  A
C558        C559   1.400       .  A
C558        O564   1.317       .  A
C559        C560   1.400       .  A
C559        H568   1.082       .  S
C560       C1379   1.378       .  A
C560        C563   1.356       .  A
O561       C1386   1.335   1_455  A
C562        C563   1.394       .  A
C562       O1385   1.334       .  A
C563        H569   1.083       .  S
O564        C565   1.329       .  A
C565       C1265   1.473       .  S
C565       C1390   1.395       .  A
C566       C1389   1.395   1_455  A
C566        H570   1.082       .  S
C571       C1400   1.381       .  A
C571        C572   1.401       .  A
C571        O577   1.316       .  A
C572        C573   1.400       .  A
C572        H583   1.082       .  S
C573        C582   1.357       .  A
C573       C1398   1.377       .  A
C574       C1397   1.378       .  A
C574        C575   1.405   1_655  A
C574        O580   1.319   1_655  A
C575        C576   1.405   1_455  A
C575        H584   1.082       .  S
C576       C1395   1.381       .  A
C576        C579   1.366   1_655  A
O577       C1402   1.329       .  A
C578        C579   1.393   1_655  A
C578       O1401   1.330       .  A
C579        H585   1.082       .  S
O580       C1405   1.331   1_455  A
C581        C582   1.397       .  A
C581       O1404   1.332       .  A
C582        H586   1.082       .  S
C587       C1416   1.379       .  A
C587        C588   1.406       .  A
C587        O593   1.321       .  A
C588        C589   1.406       .  A
C588        H599   1.082       .  S
C589        C598   1.365       .  A
C589       C1414   1.381       .  A
C590       C1413   1.381   1_455  A
C590        C591   1.402       .  A
C590        O596   1.318       .  A
C591        C592   1.402       .  A
C591        H600   1.082       .  S
C592       C1411   1.379   1_455  A
C592        C595   1.358       .  A
O593        C594   1.333       .  A
C594       C1419   1.394       .  A
C595       C1418   1.395       .  A
C595        H601   1.082       .  S
O596       C1421   1.330       .  A
C597        C598   1.393       .  A
C597       O1420   1.329       .  A
C598        H602   1.082       .  S
C603       C1432   1.381   1_455  A
C603        C604   1.406       .  A
C603        O609   1.321       .  A
C604        C605   1.405       .  A
C604        H615   1.082       .  S
C605        C614   1.366       .  A
C605       C1430   1.379   1_455  A
C606       C1429   1.379       .  A
C606        C607   1.401       .  A
C606        O612   1.315       .  A
C607        C608   1.399       .  A
C607        H616   1.082       .  S
C608       C1427   1.380       .  A
C608        C611   1.358       .  A
O609       C1434   1.332   1_455  A
C610        C611   1.389       .  A
C610       O1433   1.332       .  A
C611        H617   1.083       .  S
O612        C613   1.331       .  A
C613       C1438   1.396       .  A
C614       C1437   1.395   1_455  A
C614        H618   1.082       .  S
O619       Zr631   2.447   1_656  S
O619       C1445   1.289       .  A
O620       C1445   1.285   1_455  A
C621       O1443   1.289       .  A
C621       O1444   1.286       .  A
C621        C816   1.468       .  S
O622        C624   1.287       .  A
O623       Zr658   2.427       .  S
O623        C624   1.286       .  A
C624        C736   1.466   1_565  S
O625       Zr634   2.437   1_556  S
O626      Zr1481   2.439       .  S
C627        C755   1.471       .  S
O628      Zr1249   2.448       .  S
O628        C630   1.289       .  A
O629       Zr658   2.428       .  S
O629        C630   1.287       .  A
C630        C803   1.472       .  S
Zr631      O1246   2.448       .  S
Zr631      O1461   2.372   1_454  S
Zr631      O1256   2.371   1_455  S
Zr631       O663   2.370   1_554  S
Zr631      O1456   2.434   1_455  S
O632      Zr1455   2.437       .  S
O632        H675   0.990   1_554  S
Zr634       O662   2.367   1_554  S
O635        H679   0.990   1_554  S
O637      Zr1455   2.370   1_556  S
O637      Zr1069   2.390       .  S
O638      Zr1249   2.368       .  S
O638       Zr658   2.390       .  S
O638        H665   0.965       .  S
O639       Zr651   2.441       .  S
O640      Zr1482   2.437   1_455  S
O642      Zr1272   2.443   1_556  S
O642        C644   1.288       .  A
O643       Zr657   2.431       .  S
O643        C644   1.287       .  A
C644        C784   1.470       .  S
O645       Zr654   2.450       .  S
O645       C1471   1.289       .  A
O646       C1471   1.288       .  A
C647       O1469   1.289       .  A
C647       O1470   1.288       .  A
C647       C1595   1.475       .  S
O648        C650   1.288       .  A
O649       Zr657   2.440   1_455  S
O649        C650   1.288       .  A
C650        C720   1.472       .  S
Zr651       O661   2.371   1_545  S
Zr651       O653   2.434   1_545  S
O653        H673   0.990       .  S
Zr654      O1260   2.443       .  S
Zr654      O1278   2.377       .  S
Zr654      O1483   2.369       .  S
Zr654       O664   2.368       .  S
Zr654      O1479   2.435       .  S
O655      Zr1478   2.434   1_455  S
Zr657      O1450   2.439       .  S
Zr657      O1049   2.386       .  S
Zr657       O660   2.386   1_655  S
Zr657      O1486   2.389       .  S
Zr658      O1464   2.436       .  S
Zr658      O1071   2.387   1_565  S
Zr658      O1485   2.382       .  S
O659      Zr1478   2.370   1_455  S
O659      Zr1070   2.393   1_455  S
O659        H667   0.966       .  S
O660      Zr1272   2.378   1_456  S
O661      Zr1482   2.382   1_455  S
O662      Zr1481   2.391       .  S
O662        H666   0.966       .  S
O663        H668   0.967       .  S
C681        C819   1.489       .  S
C681        C682   1.417       .  A
C681        C686   1.406       .  A
C682        C800   1.491       .  S
C682        C683   1.408       .  A
C683        C684   1.409       .  A
C683        H688   1.083       .  S
C684        C768   1.495       .  S
C684        C685   1.420       .  A
C685        C787   1.492       .  S
C685        C686   1.410       .  A
C686        H687   1.083       .  S
C689        C752   1.486       .  S
C689        C690   1.420       .  A
C689        C694   1.407       .  A
C690        C739   1.490       .  S
C690        C691   1.405   1_565  A
C691        C692   1.405   1_545  A
C691        H696   1.085       .  S
C692        C707   1.486   1_565  S
C692        C693   1.418       .  A
C693        C723   1.488       .  S
C693        C694   1.407       .  A
C694        H695   1.085       .  S
C697        C702   1.380   1_565  A
C697        C698   1.408       .  A
C697        O703   1.323       .  A
C698        C699   1.407       .  A
C698        H709   1.082       .  S
C699        C708   1.365       .  A
C699        C700   1.379   1_565  A
C700        C701   1.400       .  A
C700        O706   1.316       .  A
C701        C702   1.399       .  A
O703        C704   1.333   1_565  A
C705        H711   1.083       .  S
O706        C707   1.331       .  A
C707        C708   1.396   1_545  A
C708        H712   1.082       .  S
C713        C714   1.407       .  A
C713        O719   1.324       .  A
C714        C715   1.408       .  A
C714        H725   1.082       .  S
C715        C724   1.365       .  A
C716        C717   1.402       .  A
C716        O722   1.318       .  A
C717        C718   1.402       .  A
C717        H726   1.082       .  S
C718        C721   1.359       .  A
O719        C720   1.333       .  A
C721        H727   1.083       .  S
O722        C723   1.332       .  A
C724        H728   1.082       .  S
C729        C734   1.381   1_565  A
C729        C730   1.405       .  A
C729        O735   1.321       .  A
C730        C731   1.405       .  A
C731        C740   1.363       .  A
C731        C732   1.378   1_565  A
C732        C733   1.401       .  A
C732        O738   1.316       .  A
C733        C734   1.400       .  A
C733        H742   1.082       .  S
C734        C737   1.357       .  A
O735        C736   1.331   1_565  A
C736        C737   1.389       .  A
C737        H743   1.083       .  S
O738        C739   1.332   1_545  A
C739        C740   1.396       .  A
C740        H744   1.082       .  S
C745        C750   1.379       .  A
C745        C746   1.402       .  A
C745        O751   1.318       .  A
C746        C747   1.402       .  A
C746        H757   1.082       .  S
C747        C756   1.359       .  A
C747        C748   1.381       .  A
C749        H758   1.082       .  S
O751        C752   1.332       .  A
C753        H759   1.082       .  S
C755        C756   1.390       .  A
C756        H760   1.083       .  S
C761       C1590   1.378       .  A
C761        C762   1.408   1_655  A
C761        O767   1.323   1_655  A
C762        C763   1.408   1_455  A
C762        H773   1.082       .  S
C763        C772   1.367   1_655  A
C763       C1588   1.381       .  A
C764       C1587   1.380       .  A
C764        C765   1.401       .  A
C764        O770   1.318       .  A
C765        C766   1.400       .  A
C765        H774   1.082       .  S
C766       C1585   1.378       .  A
C766        C769   1.357       .  A
O767       C1592   1.333   1_455  A
C768        C769   1.394       .  A
C768       O1591   1.334       .  A
C769        H775   1.083       .  S
O770        C771   1.330       .  A
C771       C1471   1.474       .  S
C771       C1596   1.395       .  A
C772       C1595   1.395   1_455  A
C772        H776   1.082       .  S
C777       C1606   1.381       .  A
C777        C778   1.401       .  A
C777        O783   1.316       .  A
C778        C779   1.400       .  A
C778        H789   1.082       .  S
C779        C788   1.358       .  A
C779       C1604   1.378       .  A
C780       C1603   1.377       .  A
C780        C781   1.407   1_655  A
C780        O786   1.321   1_655  A
C781        C782   1.406   1_455  A
C781        H790   1.082       .  S
C782       C1601   1.381       .  A
C782        C785   1.366   1_655  A
O783       C1608   1.329       .  A
C784        C785   1.393   1_655  A
C784       O1607   1.330       .  A
C785        H791   1.082       .  S
O786       C1611   1.333   1_455  A
C787        C788   1.396       .  A
C787       O1610   1.332       .  A
C788        H792   1.082       .  S
C793       C1622   1.379       .  A
C793        C794   1.407       .  A
C793        O799   1.322       .  A
C794        C795   1.407       .  A
C794        H805   1.082       .  S
C795        C804   1.366       .  A
C795       C1620   1.381       .  A
C796       C1619   1.381   1_455  A
C796        C797   1.400       .  A
C796        O802   1.317       .  A
C797        C798   1.400       .  A
C797        H806   1.082       .  S
C798       C1617   1.379   1_455  A
C798        C801   1.356       .  A
O799        C800   1.334       .  A
C800       C1625   1.395       .  A
C801       C1624   1.393       .  A
C801        H807   1.082       .  S
O802       C1627   1.329       .  A
C803        C804   1.393       .  A
C803       O1626   1.330       .  A
C804        H808   1.082       .  S
C809       C1638   1.381   1_455  A
C809        C810   1.406       .  A
C809        O815   1.321       .  A
C810        C811   1.405       .  A
C810        H821   1.082       .  S
C811        C820   1.365       .  A
C811       C1636   1.379   1_455  A
C812       C1635   1.379       .  A
C812        C813   1.401       .  A
C812        O818   1.315       .  A
C813        C814   1.399       .  A
C813        H822   1.082       .  S
C814       C1633   1.381       .  A
C814        C817   1.358       .  A
O815       C1640   1.332   1_455  A
C816        C817   1.389       .  A
C816       O1639   1.332       .  A
C817        H823   1.083       .  S
O818        C819   1.332       .  A
C819       C1644   1.396       .  A
C820       C1643   1.395   1_455  A
C820        H824   1.082       .  S
O825       Zr837   2.446       .  S
O826      Zr1275   2.428       .  S
C827       C1022   1.469       .  S
O828      Zr1458   2.434       .  S
O828        C830   1.287       .  A
O829       Zr864   2.437       .  S
O829        C830   1.288       .  A
C830        C942   1.469       .  S
O831       Zr840   2.439       .  S
O831       C1245   1.287       .  A
O832       C1245   1.287       .  A
C833       O1243   1.288       .  A
C833       O1244   1.288       .  A
C833        C961   1.472       .  S
O834        C836   1.288       .  A
O835       Zr864   2.426       .  S
O835        C836   1.286   1_655  A
C836       C1009   1.469       .  S
Zr837      O1073   2.370       .  S
Zr837       O869   2.370       .  S
Zr837      O1045   2.437       .  S
O838        H881   0.990       .  S
O839      Zr1043   2.435   1_556  S
O839       H1086   0.990       .  S
O839       H1090   0.990       .  S
Zr840      O1446   2.433       .  S
Zr840      O1462   2.371       .  S
Zr840      O1255   2.366       .  S
Zr840       O868   2.365   1_565  S
Zr840      O1076   2.369   1_565  S
Zr840      O1253   2.435       .  S
Zr840      O1048   2.437   1_565  S
O841      Zr1252   2.437       .  S
O841       H1088   0.990       .  S
O841        H885   0.990       .  S
O842      Zr1046   2.433   1_546  S
O842       H1081   0.990       .  S
O843      Zr1252   2.367       .  S
O844      Zr1458   2.371       .  S
O844       Zr864   2.387       .  S
O844        H871   0.966       .  S
O845       Zr857   2.433       .  S
O845       C1259   1.287       .  A
O846       C1259   1.288       .  A
C847       O1257   1.286       .  A
C847       O1258   1.287   1_545  A
C847       C1322   1.467       .  S
O848        C850   1.288       .  A
O849       Zr863   2.429   1_545  S
O849        C850   1.287       .  A
C850        C990   1.468       .  S
O851       Zr860   2.445       .  S
O852      Zr1276   2.436   1_545  S
O854      Zr1475   2.436   1_565  S
O854        C856   1.287       .  A
O855       Zr863   2.436   1_545  S
O855        C856   1.287   1_545  A
C856        C926   1.468       .  S
Zr857      O1472   2.436   1_554  S
Zr857      O1277   2.375       .  S
Zr857      O1484   2.373   1_554  S
Zr857      O1075   2.372   1_554  S
Zr857       O867   2.370       .  S
Zr857      O1476   2.435       .  S
Zr857       O859   2.434       .  S
O858      Zr1475   2.436       .  S
O858       H1084   0.990       .  S
O858       H1089   0.990       .  S
O859        H879   0.990       .  S
Zr860       O870   2.368       .  S
Zr860      O1074   2.370   1_554  S
Zr860      O1068   2.435       .  S
O861       H1083   0.990   1_554  S
O862      Zr1066   2.436       .  S
O862       H1082   0.990       .  S
O862       H1092   0.990       .  S
Zr863      O1238   2.430       .  S
Zr863       O866   2.384   1_565  S
Zr863      O1281   2.386       .  S
Zr864      O1264   2.430       .  S
Zr864      O1282   2.386       .  S
O865      Zr1269   2.373       .  S
O865        H873   0.966       .  S
O866      Zr1475   2.373       .  S
O867      Zr1043   2.370       .  S
O868      Zr1066   2.369       .  S
O868        H872   0.966       .  S
O869      Zr1063   2.370       .  S
O869      Zr1275   2.389       .  S
O869        H874   0.967       .  S
O870      Zr1046   2.369   1_545  S
O870      Zr1276   2.383   1_545  S
H875       O1048   0.990       .  S
H876       O1068   0.990       .  S
H877       O1067   0.990       .  S
H878       O1064   0.990       .  S
H880       O1045   0.990       .  S
H882       O1047   0.990       .  S
H883       O1064   0.990       .  S
H884       O1045   0.990       .  S
H886       O1068   0.990       .  S
C887       C1025   1.489       .  S
C887        C888   1.414   1_655  A
C887        C892   1.406       .  A
C888       C1006   1.486       .  S
C888        C889   1.405       .  A
C889        C890   1.408   1_455  A
C889        H894   1.083       .  S
C890        C974   1.494       .  S
C890        C891   1.421       .  A
C891        C993   1.493       .  S
C891        C892   1.412       .  A
C892        H893   1.082       .  S
C895        C958   1.487       .  S
C895        C896   1.420       .  A
C895        C900   1.408       .  A
C896        C945   1.488       .  S
C896        C897   1.405       .  A
C897        C898   1.405       .  A
C897        H902   1.085       .  S
C898        C913   1.483       .  S
C898        C899   1.416       .  A
C899        C929   1.487       .  S
C899        C900   1.407       .  A
C900        H901   1.085       .  S
C903        C908   1.381       .  A
C903        C904   1.407       .  A
C903        O909   1.323       .  A
C904        C905   1.406       .  A
C904        H915   1.082       .  S
C905        C914   1.364       .  A
C905        C906   1.380       .  A
C906        C907   1.398       .  A
C906        O912   1.314       .  A
C907        C908   1.398       .  A
C907       H1328   1.082       .  S
C908       C1323   1.356       .  A
O909        C910   1.333       .  A
C910       C1259   1.470       .  S
C910       C1323   1.389       .  A
C911       C1320   1.357       .  A
C911       C1322   1.389       .  A
C911        H917   1.083       .  S
O912        C913   1.329       .  A
C913        C914   1.396       .  A
C914        H918   1.082       .  S
H916       C1319   1.082       .  S
C919       C1336   1.381   1_545  A
C919        C920   1.406       .  A
C919        O925   1.323       .  A
C920        C921   1.406       .  A
C920        H931   1.082       .  S
C921        C930   1.364       .  A
C921       C1334   1.379   1_545  A
C922       C1333   1.379       .  A
C922        C923   1.401       .  A
C922        O928   1.317       .  A
C923        C924   1.401       .  A
C923        H932   1.082       .  S
C924       C1331   1.381       .  A
C924        C927   1.358       .  A
O925        C926   1.332   1_545  A
C926       C1339   1.389       .  A
C927       C1338   1.390       .  A
C927        H933   1.083       .  S
O928        C929   1.331       .  A
C929       C1342   1.397       .  A
C930       C1341   1.396   1_545  A
C930        H934   1.082       .  S
C935        C940   1.381       .  A
C935        C936   1.405       .  A
C935        O941   1.322       .  A
C936        C937   1.404       .  A
C936       H1359   1.082       .  S
C937        C946   1.363       .  A
C937        C938   1.379       .  A
C938        C939   1.402       .  A
C938        O944   1.317       .  A
C939        C940   1.402       .  A
C939        H948   1.082       .  S
C940        C943   1.359       .  A
O941        C942   1.331       .  A
C942        C943   1.391       .  A
C943        H949   1.083       .  S
O944        C945   1.332       .  A
C945        C946   1.395       .  A
C946        H950   1.082       .  S
H947       C1348   1.082       .  S
C951        C956   1.379       .  A
C951        C952   1.401       .  A
C951        O957   1.317       .  A
C952        C953   1.400       .  A
C952        H963   1.082       .  S
C953        C962   1.358       .  A
C953        C954   1.380       .  A
C954       C1367   1.408       .  A
C954       O1372   1.323       .  A
C955       C1366   1.406   1_545  A
C955       C1368   1.406   1_545  A
C955        H964   1.082       .  S
C956       C1367   1.407       .  A
C956       C1371   1.365       .  A
O957        C958   1.331       .  A
C958       C1371   1.397       .  A
C959       C1368   1.364   1_545  A
C959       C1370   1.395   1_545  A
C959        H965   1.082       .  S
O960       C1366   1.322   1_545  A
O960       C1373   1.332   1_545  A
C961        C962   1.390       .  A
C961       O1372   1.333       .  A
C962        H966   1.083       .  S
C967        C968   1.408       .  A
C967        O973   1.323       .  A
C968        C969   1.408       .  A
C968        H979   1.082       .  S
C969        C978   1.367       .  A
C970        C971   1.402       .  A
C970        O976   1.319       .  A
C971        C972   1.402       .  A
C971        H980   1.082       .  S
C972        C975   1.356       .  A
C974        C975   1.395       .  A
C975        H981   1.083       .  S
O976        C977   1.331       .  A
C978        H982   1.082       .  S
C983        C984   1.401       .  A
C983        O989   1.316       .  A
C984        C985   1.400       .  A
C984        H995   1.082       .  S
C985        C994   1.357       .  A
C986        C987   1.406       .  A
C986        O992   1.320       .  A
C987        C988   1.405       .  A
C987        H996   1.082       .  S
C988        C991   1.366       .  A
C990        C991   1.393       .  A
C991        H997   1.082       .  S
C993        C994   1.397       .  A
C994        H998   1.082       .  S
C999       C1000   1.405       .  A
C999       O1005   1.321       .  A
C1000      C1001   1.405       .  A
C1000      H1011   1.082       .  S
C1001      C1010   1.365       .  A
C1002      C1003   1.401       .  A
C1002      O1008   1.318       .  A
C1003      C1004   1.401       .  A
C1003      H1012   1.082       .  S
C1004      C1007   1.357       .  A
O1005      C1006   1.332   1_655  A
C1007      H1013   1.082       .  S
C1009      C1010   1.393   1_455  A
C1010      H1014   1.082       .  S
C1015      C1016   1.408       .  A
C1015      O1021   1.322       .  A
C1016      C1017   1.407       .  A
C1016      H1027   1.082       .  S
C1017      C1026   1.367       .  A
C1018      C1019   1.400       .  A
C1018      O1024   1.315       .  A
C1019      C1020   1.399       .  A
C1019      H1028   1.082       .  S
C1020      C1023   1.358       .  A
C1022      C1023   1.388       .  A
C1023      H1029   1.083       .  S
O1024      C1025   1.331       .  A
C1026      H1030   1.082       .  S
O1031     Zr1043   2.442   1_556  S
O1032     Zr1481   2.433       .  S
C1033      C1228   1.470       .  S
O1034     Zr1252   2.439       .  S
O1034      C1036   1.288       .  A
O1035     Zr1070   2.433       .  S
O1035      C1036   1.287       .  A
C1036      C1148   1.469       .  S
O1037     Zr1046   2.443   1_556  S
O1037      C1451   1.288       .  A
O1038      C1451   1.287       .  A
C1039      O1449   1.288       .  A
C1039      O1450   1.288       .  A
C1039      C1167   1.472       .  S
O1040      C1042   1.288       .  A
O1041     Zr1070   2.432       .  S
O1041      C1042   1.287   1_655  A
C1042      C1215   1.472       .  S
Zr1043     O1075   2.368   1_554  S
O1044      H1087   0.990   1_554  S
Zr1046     O1240   2.438       .  S
Zr1046     O1256   2.373       .  S
Zr1046     O1461   2.368   1_554  S
Zr1046     O1074   2.368   1_564  S
Zr1046     O1459   2.436       .  S
O1047     Zr1458   2.435       .  S
O1047      H1091   0.990   1_554  S
O1049     Zr1458   2.366   1_556  S
O1050     Zr1252   2.371       .  S
O1050     Zr1070   2.389       .  S
O1050      H1077   0.966       .  S
O1051     Zr1063   2.429       .  S
O1051      C1465   1.286       .  A
O1052      C1465   1.288       .  A
C1053      O1463   1.287       .  A
C1053      O1464   1.287   1_545  A
C1053      C1528   1.469       .  S
O1054      C1056   1.287       .  A
O1055     Zr1069   2.430   1_545  S
O1055      C1056   1.287       .  A
C1056      C1196   1.469       .  S
O1057     Zr1066   2.448       .  S
O1058     Zr1482   2.432   1_545  S
O1060     Zr1269   2.438   1_566  S
O1060      C1062   1.287       .  A
O1061     Zr1069   2.442   1_545  S
O1061      C1062   1.288   1_545  A
C1062      C1132   1.471       .  S
Zr1063     O1266   2.435       .  S
Zr1063     O1483   2.373       .  S
Zr1063     O1278   2.374       .  S
Zr1063     O1073   2.371       .  S
Zr1063     O1270   2.435       .  S
Zr1063     O1065   2.433       .  S
O1064     Zr1269   2.434       .  S
O1065      H1085   0.990       .  S
Zr1066     O1076   2.370       .  S
Zr1069     O1444   2.428       .  S
Zr1069     O1072   2.383   1_565  S
Zr1069     O1487   2.390       .  S
Zr1070     O1470   2.434       .  S
Zr1070     O1488   2.385       .  S
O1071     Zr1475   2.372       .  S
O1071      H1079   0.966       .  S
O1072     Zr1269   2.372   1_556  S
O1074      H1078   0.966       .  S
O1075     Zr1481   2.385       .  S
O1075      H1080   0.967       .  S
O1076     Zr1482   2.386   1_545  S
C1093      C1231   1.488       .  S
C1093      C1094   1.415   1_655  A
C1093      C1098   1.405       .  A
C1094      C1212   1.487       .  S
C1094      C1095   1.405       .  A
C1095      C1096   1.409   1_455  A
C1095      H1100   1.083       .  S
C1096      C1180   1.496       .  S
C1096      C1097   1.422       .  A
C1097      C1199   1.492       .  S
C1097      C1098   1.411       .  A
C1098      H1099   1.083       .  S
C1101      C1164   1.484       .  S
C1101      C1102   1.420       .  A
C1101      C1106   1.406       .  A
C1102      C1151   1.487       .  S
C1102      C1103   1.404       .  A
C1103      C1104   1.403       .  A
C1103      H1108   1.085       .  S
C1104      C1119   1.480       .  S
C1104      C1105   1.415       .  A
C1105      C1135   1.484       .  S
C1105      C1106   1.405       .  A
C1106      H1107   1.085       .  S
C1109      C1114   1.381       .  A
C1109      C1110   1.405       .  A
C1109      O1115   1.321       .  A
C1110      C1111   1.405       .  A
C1110      H1121   1.082       .  S
C1111      C1120   1.363       .  A
C1111      C1112   1.380       .  A
C1112      C1113   1.399       .  A
C1112      O1118   1.315       .  A
C1113      C1114   1.398       .  A
C1113      H1534   1.082       .  S
C1114      C1529   1.356       .  A
O1115      C1116   1.331       .  A
C1116      C1465   1.467       .  S
C1116      C1529   1.389       .  A
C1117      C1526   1.356       .  A
C1117      C1528   1.389       .  A
C1117      H1123   1.083       .  S
O1118      C1119   1.329       .  A
C1119      C1120   1.395       .  A
C1120      H1124   1.082       .  S
H1122      C1525   1.082       .  S
C1125      C1542   1.381   1_545  A
C1125      C1126   1.407       .  A
C1125      O1131   1.323       .  A
C1126      C1127   1.406       .  A
C1126      H1137   1.082       .  S
C1127      C1136   1.364       .  A
C1127      C1540   1.379   1_545  A
C1128      C1539   1.379       .  A
C1128      C1129   1.401       .  A
C1128      O1134   1.317       .  A
C1129      C1130   1.401       .  A
C1129      H1138   1.082       .  S
C1130      C1537   1.381       .  A
C1130      C1133   1.358       .  A
O1131      C1132   1.332   1_545  A
C1132      C1545   1.390       .  A
C1133      C1544   1.390       .  A
C1133      H1139   1.083       .  S
O1134      C1135   1.330       .  A
C1135      C1548   1.396       .  A
C1136      C1547   1.396   1_545  A
C1136      H1140   1.082       .  S
C1141      C1146   1.381       .  A
C1141      C1142   1.404       .  A
C1141      O1147   1.321       .  A
C1142      C1143   1.404       .  A
C1142      H1565   1.082       .  S
C1143      C1152   1.361       .  A
C1143      C1144   1.378       .  A
C1144      C1145   1.401       .  A
C1144      O1150   1.316       .  A
C1145      C1146   1.400       .  A
C1145      H1154   1.082       .  S
C1146      C1149   1.358       .  A
O1147      C1148   1.331       .  A
C1148      C1149   1.390       .  A
C1149      H1155   1.083       .  S
O1150      C1151   1.332       .  A
C1151      C1152   1.395       .  A
C1152      H1156   1.082       .  S
H1153      C1554   1.082       .  S
C1157      C1162   1.379       .  A
C1157      C1158   1.401       .  A
C1157      O1163   1.317       .  A
C1158      C1159   1.401       .  A
C1158      H1169   1.082       .  S
C1159      C1168   1.359       .  A
C1159      C1160   1.380       .  A
C1160      C1573   1.407       .  A
C1160      O1578   1.323       .  A
C1161      C1572   1.406   1_545  A
C1161      C1574   1.406   1_545  A
C1161      H1170   1.082       .  S
C1162      C1573   1.406       .  A
C1162      C1577   1.364       .  A
O1163      C1164   1.331       .  A
C1164      C1577   1.396       .  A
C1165      C1574   1.364   1_545  A
C1165      C1576   1.396   1_545  A
C1165      H1171   1.082       .  S
O1166      C1572   1.322   1_545  A
O1166      C1579   1.332   1_545  A
C1167      C1168   1.390       .  A
C1167      O1578   1.333       .  A
C1168      H1172   1.083       .  S
C1173      C1174   1.407       .  A
C1173      O1179   1.323       .  A
C1174      C1175   1.408       .  A
C1174      H1185   1.082       .  S
C1175      C1184   1.367       .  A
C1176      C1177   1.400       .  A
C1176      O1182   1.317       .  A
C1177      C1178   1.400       .  A
C1177      H1186   1.082       .  S
C1178      C1181   1.355       .  A
C1180      C1181   1.395       .  A
C1181      H1187   1.083       .  S
O1182      C1183   1.330       .  A
C1184      H1188   1.082       .  S
C1189      C1190   1.401       .  A
C1189      O1195   1.315       .  A
C1190      C1191   1.400       .  A
C1190      H1201   1.083       .  S
C1191      C1200   1.357       .  A
C1192      C1193   1.407       .  A
C1192      O1198   1.321       .  A
C1193      C1194   1.406       .  A
C1193      H1202   1.082       .  S
C1194      C1197   1.366       .  A
C1196      C1197   1.393       .  A
C1197      H1203   1.082       .  S
C1199      C1200   1.397       .  A
C1200      H1204   1.082       .  S
C1205      C1206   1.405       .  A
C1205      O1211   1.321       .  A
C1206      C1207   1.405       .  A
C1206      H1217   1.082       .  S
C1207      C1216   1.365       .  A
C1208      C1209   1.401       .  A
C1208      O1214   1.318       .  A
C1209      C1210   1.400       .  A
C1209      H1218   1.082       .  S
C1210      C1213   1.357       .  A
O1211      C1212   1.332   1_655  A
C1213      H1219   1.082       .  S
C1215      C1216   1.393   1_455  A
C1216      H1220   1.082       .  S
C1221      C1222   1.408       .  A
C1221      O1227   1.323       .  A
C1222      C1223   1.407       .  A
C1222      H1233   1.082       .  S
C1223      C1232   1.366       .  A
C1224      C1225   1.402       .  A
C1224      O1230   1.316       .  A
C1225      C1226   1.400       .  A
C1225      H1234   1.082       .  S
C1226      C1229   1.359       .  A
C1228      C1229   1.389       .  A
C1229      H1235   1.083       .  S
O1230      C1231   1.332       .  A
C1232      H1236   1.082       .  S
O1237     Zr1249   2.444       .  S
C1239      C1434   1.468       .  S
O1240      C1242   1.287       .  A
O1241     Zr1276   2.435       .  S
O1241      C1242   1.287       .  A
C1242      C1354   1.470   1_565  S
O1243     Zr1252   2.441       .  S
C1245      C1373   1.470       .  S
O1246      C1248   1.289       .  A
O1247     Zr1276   2.426       .  S
O1247      C1248   1.286   1_655  A
C1248      C1421   1.471       .  S
Zr1249     O1485   2.370       .  S
Zr1249     O1281   2.372       .  S
Zr1249     O1457   2.436       .  S
O1250      H1293   0.990       .  S
O1251     Zr1455   2.436   1_556  S
O1251      H1498   0.990       .  S
O1251      H1502   0.990   1_556  S
Zr1252     O1280   2.368       .  S
Zr1252     O1488   2.369       .  S
Zr1252     O1460   2.434       .  S
O1253      H1500   0.990       .  S
O1253      H1297   0.990       .  S
O1254     Zr1458   2.435   1_556  S
O1254      H1493   0.990   1_556  S
O1256     Zr1276   2.392       .  S
O1256      H1283   0.966       .  S
O1257     Zr1269   2.429       .  S
O1260      C1262   1.288       .  A
O1261     Zr1275   2.430       .  S
O1261      C1262   1.287       .  A
C1262      C1402   1.469       .  S
O1263     Zr1272   2.451       .  S
O1266      C1268   1.287       .  A
O1267     Zr1275   2.438       .  S
O1267      C1268   1.288       .  A
C1268      C1338   1.469       .  S
Zr1269     O1487   2.371   1_544  S
Zr1269     O1279   2.372   1_545  S
Zr1269     O1271   2.433   1_545  S
O1270      H1496   0.990       .  S
O1270      H1501   0.990       .  S
O1271      H1291   0.990       .  S
Zr1272     O1282   2.367       .  S
Zr1272     O1486   2.371   1_554  S
Zr1272     O1480   2.436       .  S
O1273      H1495   0.990   1_554  S
O1274     Zr1478   2.435       .  S
O1274      H1494   0.990       .  S
O1274      H1504   0.990       .  S
Zr1275     O1278   2.383       .  S
O1277      H1285   0.966       .  S
O1279     Zr1455   2.369       .  S
O1280     Zr1478   2.371       .  S
O1280      H1284   0.966       .  S
O1281     Zr1475   2.370   1_565  S
O1281      H1286   0.967       .  S
O1282     Zr1458   2.369       .  S
H1287      O1460   0.990       .  S
H1288      O1480   0.990       .  S
H1289      O1479   0.990       .  S
H1290      O1476   0.990       .  S
H1292      O1457   0.990       .  S
H1294      O1459   0.990       .  S
H1295      O1476   0.990       .  S
H1296      O1457   0.990       .  S
H1298      O1480   0.990       .  S
C1299      C1437   1.487       .  S
C1299      C1300   1.417   1_655  A
C1299      C1304   1.406       .  A
C1300      C1418   1.491       .  S
C1300      C1301   1.408       .  A
C1301      C1302   1.409   1_455  A
C1301      H1306   1.083       .  S
C1302      C1386   1.496       .  S
C1302      C1303   1.419       .  A
C1303      C1405   1.490       .  S
C1303      C1304   1.410       .  A
C1304      H1305   1.083       .  S
C1307      C1370   1.488       .  S
C1307      C1308   1.420       .  A
C1307      C1312   1.407       .  A
C1308      C1357   1.486       .  S
C1308      C1309   1.406       .  A
C1309      C1310   1.404       .  A
C1309      H1314   1.085   1_565  S
C1310      C1325   1.486   1_565  S
C1310      C1311   1.418       .  A
C1311      C1341   1.486       .  S
C1311      C1312   1.407       .  A
C1312      H1313   1.085       .  S
C1315      C1320   1.381   1_565  A
C1315      C1316   1.406       .  A
C1315      O1321   1.322       .  A
C1316      C1317   1.406       .  A
C1316      H1327   1.082       .  S
C1317      C1326   1.365       .  A
C1317      C1318   1.379   1_565  A
C1318      C1319   1.400       .  A
C1318      O1324   1.316       .  A
C1319      C1320   1.399       .  A
O1321      C1322   1.331   1_565  A
C1323      H1329   1.083       .  S
O1324      C1325   1.331       .  A
C1325      C1326   1.396   1_545  A
C1326      H1330   1.082       .  S
C1331      C1332   1.406       .  A
C1331      O1337   1.322       .  A
C1332      C1333   1.406       .  A
C1332      H1343   1.082       .  S
C1333      C1342   1.364       .  A
C1334      C1335   1.400       .  A
C1334      O1340   1.316       .  A
C1335      C1336   1.399       .  A
C1335      H1344   1.082       .  S
C1336      C1339   1.357       .  A
O1337      C1338   1.332       .  A
C1339      H1345   1.083       .  S
O1340      C1341   1.330       .  A
C1342      H1346   1.082       .  S
C1347      C1352   1.381   1_565  A
C1347      C1348   1.406       .  A
C1347      O1353   1.321       .  A
C1348      C1349   1.404       .  A
C1349      C1358   1.364       .  A
C1349      C1350   1.379   1_565  A
C1350      C1351   1.402       .  A
C1350      O1356   1.316       .  A
C1351      C1352   1.401       .  A
C1351      H1360   1.082       .  S
C1352      C1355   1.360       .  A
O1353      C1354   1.331   1_565  A
C1354      C1355   1.391       .  A
C1355      H1361   1.083       .  S
O1356      C1357   1.332   1_545  A
C1357      C1358   1.395       .  A
C1358      H1362   1.082       .  S
C1363      C1368   1.379       .  A
C1363      C1364   1.403       .  A
C1363      O1369   1.318       .  A
C1364      C1365   1.402       .  A
C1364      H1375   1.082       .  S
C1365      C1374   1.359       .  A
C1365      C1366   1.381       .  A
C1367      H1376   1.082       .  S
O1369      C1370   1.332       .  A
C1371      H1377   1.082       .  S
C1373      C1374   1.390       .  A
C1374      H1378   1.083       .  S
C1379      C1380   1.409       .  A
C1379      O1385   1.323       .  A
C1380      C1381   1.409       .  A
C1380      H1391   1.082       .  S
C1381      C1390   1.367       .  A
C1382      C1383   1.400       .  A
C1382      O1388   1.317       .  A
C1383      C1384   1.400       .  A
C1383      H1392   1.082       .  S
C1384      C1387   1.357       .  A
C1386      C1387   1.394       .  A
C1387      H1393   1.082       .  S
O1388      C1389   1.329       .  A
C1390      H1394   1.082       .  S
C1395      C1396   1.402       .  A
C1395      O1401   1.316       .  A
C1396      C1397   1.401       .  A
C1396      H1407   1.082       .  S
C1397      C1406   1.359       .  A
C1398      C1399   1.406       .  A
C1398      O1404   1.320       .  A
C1399      C1400   1.406       .  A
C1399      H1408   1.082       .  S
C1400      C1403   1.366       .  A
C1402      C1403   1.393       .  A
C1403      H1409   1.082       .  S
C1405      C1406   1.396       .  A
C1406      H1410   1.082       .  S
C1411      C1412   1.407       .  A
C1411      O1417   1.323       .  A
C1412      C1413   1.406       .  A
C1412      H1423   1.082       .  S
C1413      C1422   1.365       .  A
C1414      C1415   1.401       .  A
C1414      O1420   1.317       .  A
C1415      C1416   1.401       .  A
C1415      H1424   1.082       .  S
C1416      C1419   1.358       .  A
O1417      C1418   1.334   1_655  A
C1419      H1425   1.082       .  S
C1421      C1422   1.393   1_455  A
C1422      H1426   1.082       .  S
C1427      C1428   1.407       .  A
C1427      O1433   1.322       .  A
C1428      C1429   1.406       .  A
C1428      H1439   1.082       .  S
C1429      C1438   1.367       .  A
C1430      C1431   1.402       .  A
C1430      O1436   1.316       .  A
C1431      C1432   1.400       .  A
C1431      H1440   1.082       .  S
C1432      C1435   1.359       .  A
C1434      C1435   1.389       .  A
C1435      H1441   1.083       .  S
O1436      C1437   1.332       .  A
C1438      H1442   1.082       .  S
O1443     Zr1455   2.445   1_556  S
C1445      C1640   1.466       .  S
O1446      C1448   1.286       .  A
O1447     Zr1482   2.433       .  S
O1447      C1448   1.287       .  A
C1448      C1560   1.467   1_565  S
O1449     Zr1458   2.441   1_556  S
C1451      C1579   1.471       .  S
O1452      C1454   1.288       .  A
O1453     Zr1482   2.425   1_455  S
O1453      C1454   1.286       .  A
C1454      C1627   1.469       .  S
Zr1455     O1487   2.370   1_554  S
O1456      H1499   0.990   1_554  S
Zr1458     O1486   2.366   1_554  S
O1459      H1503   0.990   1_554  S
O1462     Zr1482   2.389       .  S
O1462      H1489   0.965       .  S
O1463     Zr1475   2.435       .  S
O1466      C1468   1.288       .  A
O1467     Zr1481   2.425       .  S
O1467      C1468   1.286       .  A
C1468      C1608   1.468       .  S
O1469     Zr1478   2.450       .  S
O1472      C1474   1.287       .  A
O1473     Zr1481   2.441       .  S
O1473      C1474   1.288       .  A
C1474      C1544   1.470       .  S
Zr1475     O1485   2.371   1_545  S
Zr1475     O1477   2.435   1_545  S
O1477      H1497   0.990       .  S
Zr1478     O1488   2.369       .  S
Zr1481     O1484   2.385       .  S
O1483      H1491   0.966       .  S
O1486      H1490   0.966       .  S
O1487      H1492   0.967       .  S
C1505      C1643   1.485       .  S
C1505      C1506   1.415   1_655  A
C1505      C1510   1.405       .  A
C1506      C1624   1.490       .  S
C1506      C1507   1.407       .  A
C1507      C1508   1.409   1_455  A
C1507      H1512   1.083       .  S
C1508      C1592   1.492       .  S
C1508      C1509   1.419       .  A
C1509      C1611   1.493       .  S
C1509      C1510   1.411       .  A
C1510      H1511   1.083       .  S
C1513      C1576   1.487       .  S
C1513      C1514   1.419       .  A
C1513      C1518   1.407       .  A
C1514      C1563   1.487       .  S
C1514      C1515   1.405       .  A
C1515      C1516   1.405       .  A
C1515      H1520   1.085   1_565  S
C1516      C1531   1.487       .  S
C1516      C1517   1.418       .  A
C1517      C1547   1.487       .  S
C1517      C1518   1.408       .  A
C1518      H1519   1.085       .  S
C1521      C1526   1.380   1_565  A
C1521      C1522   1.407       .  A
C1521      O1527   1.323       .  A
C1522      C1523   1.407       .  A
C1522      H1533   1.082       .  S
C1523      C1532   1.366       .  A
C1523      C1524   1.379   1_565  A
C1524      C1525   1.399       .  A
C1524      O1530   1.315       .  A
C1525      C1526   1.399       .  A
O1527      C1528   1.333   1_565  A
C1529      H1535   1.083       .  S
O1530      C1531   1.330   1_545  A
C1531      C1532   1.397       .  A
C1532      H1536   1.082       .  S
C1537      C1538   1.406       .  A
C1537      O1543   1.322       .  A
C1538      C1539   1.406       .  A
C1538      H1549   1.082       .  S
C1539      C1548   1.363       .  A
C1540      C1541   1.401       .  A
C1540      O1546   1.318       .  A
C1541      C1542   1.401       .  A
C1541      H1550   1.082       .  S
C1542      C1545   1.358       .  A
O1543      C1544   1.332       .  A
C1545      H1551   1.083       .  S
O1546      C1547   1.331       .  A
C1548      H1552   1.082       .  S
C1553      C1558   1.381   1_565  A
C1553      C1554   1.405       .  A
C1553      O1559   1.321       .  A
C1554      C1555   1.405       .  A
C1555      C1564   1.363       .  A
C1555      C1556   1.379   1_565  A
C1556      C1557   1.400       .  A
C1556      O1562   1.316       .  A
C1557      C1558   1.400       .  A
C1557      H1566   1.082       .  S
C1558      C1561   1.357       .  A
O1559      C1560   1.331   1_565  A
C1560      C1561   1.390       .  A
C1561      H1567   1.083       .  S
O1562      C1563   1.332   1_545  A
C1563      C1564   1.396       .  A
C1564      H1568   1.082       .  S
C1569      C1574   1.379       .  A
C1569      C1570   1.402       .  A
C1569      O1575   1.318       .  A
C1570      C1571   1.401       .  A
C1570      H1581   1.082       .  S
C1571      C1580   1.359       .  A
C1571      C1572   1.381       .  A
C1573      H1582   1.082       .  S
O1575      C1576   1.331       .  A
C1577      H1583   1.082       .  S
C1579      C1580   1.390       .  A
C1580      H1584   1.083       .  S
C1585      C1586   1.409       .  A
C1585      O1591   1.324       .  A
C1586      C1587   1.409       .  A
C1586      H1597   1.082       .  S
C1587      C1596   1.368       .  A
C1588      C1589   1.400       .  A
C1588      O1594   1.318       .  A
C1589      C1590   1.400       .  A
C1589      H1598   1.082       .  S
C1590      C1593   1.356       .  A
C1592      C1593   1.393       .  A
C1593      H1599   1.083       .  S
O1594      C1595   1.330       .  A
C1596      H1600   1.082       .  S
C1601      C1602   1.401       .  A
C1601      O1607   1.316       .  A
C1602      C1603   1.400       .  A
C1602      H1613   1.082       .  S
C1603      C1612   1.357       .  A
C1604      C1605   1.406       .  A
C1604      O1610   1.320       .  A
C1605      C1606   1.405       .  A
C1605      H1614   1.082       .  S
C1606      C1609   1.365       .  A
C1608      C1609   1.393       .  A
C1609      H1615   1.082       .  S
C1611      C1612   1.396       .  A
C1612      H1616   1.082       .  S
C1617      C1618   1.407       .  A
C1617      O1623   1.323       .  A
C1618      C1619   1.407       .  A
C1618      H1629   1.082       .  S
C1619      C1628   1.365       .  A
C1620      C1621   1.401       .  A
C1620      O1626   1.318       .  A
C1621      C1622   1.401       .  A
C1621      H1630   1.082       .  S
C1622      C1625   1.358       .  A
O1623      C1624   1.335   1_655  A
C1625      H1631   1.082       .  S
C1627      C1628   1.393   1_455  A
C1628      H1632   1.082       .  S
C1633      C1634   1.407       .  A
C1633      O1639   1.322       .  A
C1634      C1635   1.406       .  A
C1634      H1645   1.082       .  S
C1635      C1644   1.366       .  A
C1636      C1637   1.401       .  A
C1636      O1642   1.315       .  A
C1637      C1638   1.399       .  A
C1637      H1646   1.082       .  S
C1638      C1641   1.358       .  A
C1640      C1641   1.388       .  A
C1641      H1647   1.083       .  S
O1642      C1643   1.331       .  A
C1644      H1648   1.082       .  S
