geometry optimzed in LAMMPS
_audit_creation_date              2020-12-01 
_audit_creation_method            'lammps2cif' 
_symmetry_space_group_name_H-M    'P1' 
_symmetry_Int_Tables_number       1 
_symmetry_cell_setting            triclinic 
loop_ 
_symmetry_equiv_pos_as_xyz 
  x,y,z 
_cell_length_a                    60.29860233 
_cell_length_b                    60.22591566077311 
_cell_length_c                    25.07600682072986 
_cell_angle_alpha                 89.57845859241468 
_cell_angle_beta                  90.27629017376955 
_cell_angle_gamma                 121.08915361737483 
loop_ 
_atom_site_label 
_atom_site_type_symbol 
_atom_site_fract_x 
_atom_site_fract_y 
_atom_site_fract_z 
_atom_site_charge 
C1          C  0.32752141  0.02350170  0.17762459     0.02900
C2          C  0.31616793  0.99642691  0.17953440    -0.13300
C3          C  0.30984688  0.98306937  0.22830875     0.00400
C4          C  0.31545108  0.99699414  0.27586903    -0.11800
C5          C  0.32671627  0.02404589  0.27531350     0.02900
C6          C  0.33272768  0.03719407  0.22593163    -0.11200
H7          H  0.31269721  0.98562617  0.14299696     0.08500
H8          H  0.31089183  0.98662011  0.31350365     0.06000
H9          H  0.34077764  0.05795155  0.22513937     0.05800
In10       In  0.19807719  0.35155623  0.22819610     1.36900
C11         C  0.14675283  0.32806377  0.22972268     0.77300
O12         O  0.19691212  0.35244971  0.13864933    -0.61100
O13         O  0.21374365  0.33290185  0.17575309    -0.52000
C14         C  0.23135769  0.40236693  0.23470666     0.70000
O15         O  0.20722161  0.39253409  0.23109994    -0.46900
C16         C  0.20453628  0.33528479  0.32221359     0.74700
O17         O  0.16142487  0.35237258  0.22846866    -0.58700
O18         O  0.21020600  0.32885419  0.27895967    -0.48800
O19         O  0.15839020  0.31569003  0.22837359    -0.55200
C20         C  0.20767815  0.33941128  0.13276488     0.84900
O21         O  0.23860159  0.38613242  0.23420833    -0.57100
O22         O  0.19590596  0.35028168  0.31713780    -0.60400
In23       In  0.21227009  0.73852944  0.22438817     1.36900
C24         C  0.23082224  0.78934773  0.22242679     0.77300
O25         O  0.21316400  0.73774042  0.13494828    -0.61100
O26         O  0.17738083  0.71313998  0.17324106    -0.52000
C27         C  0.24258849  0.71873971  0.23464888     0.70000
O28         O  0.25123883  0.74249494  0.22674278    -0.46900
C29         C  0.18871774  0.72671489  0.31857793     0.74700
O30         O  0.24499175  0.77969279  0.22158131    -0.58700
O31         O  0.17644746  0.72088817  0.27509534    -0.48800
O32         O  0.20688757  0.77290562  0.22303459    -0.55200
C33         C  0.18944627  0.72112826  0.12980466     0.84900
O34         O  0.21819548  0.70484223  0.23567984    -0.57100
O35         O  0.21296294  0.73843561  0.31363631    -0.60400
C36         C  0.35127349  0.63756606  0.27118554     0.02900
C37         C  0.33667049  0.61047411  0.26730342    -0.13300
C38         C  0.34884883  0.59598738  0.26401943     0.00400
C39         C  0.37599406  0.60889519  0.26547056    -0.11800
C40         C  0.39088297  0.63604685  0.26907187     0.02900
C41         C  0.37833947  0.65022862  0.27193926    -0.11200
H42         H  0.31572006  0.60065559  0.26629915     0.08500
H43         H  0.38553720  0.59789691  0.26170839     0.06000
H44         H  0.38962513  0.67115142  0.27547003     0.05800
In45       In  0.63581729  0.77656601  0.26236895     1.36900
C46         C  0.58522734  0.74257539  0.26512936     0.77300
O47         O  0.66085427  0.79695642  0.33298400    -0.61100
O48         O  0.62800021  0.80031453  0.32037732    -0.52000
C49         C  0.66273701  0.75303941  0.26260076     0.70000
O50         O  0.63850512  0.74097153  0.26869128    -0.46900
C51         C  0.64664377  0.80071194  0.16833698     0.74700
O52         O  0.60017671  0.74416786  0.30225554    -0.58700
O53         O  0.64904620  0.81240823  0.21156059    -0.48800
O54         O  0.59621542  0.75843420  0.22741111    -0.55200
C55         C  0.64716942  0.80564641  0.34965759     0.84900
O56         O  0.67317117  0.77721599  0.25690554    -0.57100
O57         O  0.63915387  0.77708297  0.17381492    -0.60400
C58         C  0.78070858  0.63877899  0.30526343     0.02900
C59         C  0.78705524  0.63208240  0.25652606    -0.13300
C60         C  0.78065898  0.63925147  0.20789609     0.00400
C61         C  0.76780288  0.65316316  0.20866015    -0.11800
C62         C  0.76172604  0.66033167  0.25702376     0.02900
C63         C  0.76856363  0.65331643  0.30500400    -0.11200
H64         H  0.79662221  0.62102550  0.25650007     0.08500
H65         H  0.76173997  0.65766571  0.17145854     0.06000
H66         H  0.76454872  0.65930866  0.34257185     0.05800
C67         C  0.91260129  0.23206160  0.21742918     0.02900
C68         C  0.93932137  0.24160358  0.21676011    -0.13300
C69         C  0.95353680  0.24712202  0.26431620     0.00400
C70         C  0.94068694  0.24304449  0.31324750    -0.11800
C71         C  0.91389955  0.23339040  0.31494154     0.02900
C72         C  0.90003486  0.22796708  0.26674315    -0.11200
H73         H  0.94913872  0.24473636  0.17894593     0.08500
H74         H  0.95142735  0.24665255  0.35011495     0.06000
H75         H  0.87953086  0.22112890  0.26758125     0.05800
C76         C  0.09981071  0.67856540  0.67587907     0.02900
C77         C  0.07269066  0.66569641  0.67736801    -0.13300
C78         C  0.05937618  0.65694569  0.72585337     0.00400
C79         C  0.07333106  0.66087356  0.77321146    -0.11800
C80         C  0.10046945  0.67398279  0.77261006     0.02900
C81         C  0.11359848  0.68280847  0.72379605    -0.11200
H82         H  0.06182854  0.66206761  0.64064215     0.08500
H83         H  0.06309833  0.65472732  0.81087758     0.06000
H84         H  0.13456533  0.69304521  0.72316946     0.05800
C85         C  0.23979141  0.28405537  0.77699935     0.02900
C86         C  0.25159447  0.26912395  0.77721465    -0.13300
C87         C  0.25631125  0.26031515  0.72936283     0.00400
C88         C  0.24899742  0.26649851  0.68096436    -0.11800
C89         C  0.23718878  0.28136515  0.67991485     0.02900
C90         C  0.23261347  0.29007794  0.72810542    -0.11200
H91         H  0.25671966  0.26395331  0.81480720     0.08500
H92         H  0.25333574  0.26047720  0.64378752     0.06000
H93         H  0.22362636  0.30168514  0.72751370     0.05800
In94       In  0.81777983  0.56627261  0.75844782     1.36900
C95         C  0.86791555  0.58418761  0.75170097     0.77300
O96         O  0.82473976  0.57254869  0.67085411    -0.61100
O97         O  0.80081980  0.58454356  0.70700851    -0.52000
C98         C  0.78401781  0.51555964  0.76465284     0.70000
O99         O  0.80491115  0.52663444  0.79030833    -0.46900
C100        C  0.81100014  0.58359158  0.85070648     0.74700
O101        O  0.85102753  0.56080734  0.74295642    -0.58700
O102        O  0.80517958  0.58947005  0.80657220    -0.48800
O103        O  0.85902958  0.59840583  0.76386978    -0.55200
C104        C  0.81126069  0.58287729  0.66480546     0.84900
O105        O  0.78037110  0.53039563  0.73523016    -0.57100
O106        O  0.82032828  0.56920904  0.84707887    -0.60400
C107        C  0.66234732  0.28066595  0.77233914     0.02900
C108        C  0.67635852  0.30779992  0.77401042    -0.13300
C109        C  0.66375440  0.32192491  0.77588451     0.00400
C110        C  0.63656075  0.30842917  0.77323993    -0.11800
C111        C  0.62227258  0.28127127  0.76976930     0.02900
C112        C  0.63526277  0.26749018  0.76977405    -0.11200
H113        H  0.69730386  0.31792370  0.77331173     0.08500
H114        H  0.62636810  0.31884348  0.77526526     0.06000
H115        H  0.62424806  0.24650147  0.76812830     0.05800
In116      In  0.37782680  0.13880986  0.72558410     1.36900
C117        C  0.35145919  0.16327224  0.72398528     0.77300
O118        O  0.38978006  0.12999650  0.64707705    -0.61100
O119        O  0.35010264  0.10926569  0.66676456    -0.52000
C120        C  0.42867902  0.17002492  0.73026787     0.70000
O121        O  0.41395848  0.17735708  0.71175839    -0.46900
C122        C  0.36812119  0.11390715  0.81891985     0.74700
O123        O  0.37576297  0.17491848  0.72067715    -0.58700
O124        O  0.36662279  0.10305477  0.77513626    -0.48800
O125        O  0.34055356  0.13897471  0.72762155    -0.55200
C126        C  0.36718991  0.11317725  0.63319036     0.84900
O127        O  0.41727288  0.14662831  0.74539241    -0.57100
O128        O  0.37439919  0.13727996  0.81461043    -0.60400
In129      In  0.79871972  0.17514380  0.76527203     1.36900
C130        C  0.77811143  0.12418153  0.76183148     0.77300
O131        O  0.79948289  0.18091951  0.67642366    -0.61100
O132        O  0.83492226  0.19197533  0.71500616    -0.52000
C133        C  0.76854217  0.19524124  0.77181197     0.70000
O134        O  0.75955125  0.17125574  0.76706368    -0.46900
C135        C  0.82145367  0.18791806  0.86086830     0.74700
O136        O  0.76460870  0.13465378  0.76380151    -0.58700
O137        O  0.82881768  0.20369188  0.82235832    -0.48800
O138        O  0.80227661  0.13993790  0.76048061    -0.55200
C139        C  0.82349979  0.19037531  0.67170831     0.84900
O140        O  0.79289444  0.20878516  0.77334096    -0.57100
O141        O  0.80264765  0.16570694  0.85030845    -0.60400
C142        C  0.68005592  0.89016928  0.71091008     0.02900
C143        C  0.69235161  0.91728310  0.71346639    -0.13300
C144        C  0.69703101  0.92990722  0.76251321     0.00400
C145        C  0.68966075  0.91524731  0.80967177    -0.11800
C146        C  0.67769031  0.88809562  0.80842391     0.02900
C147        C  0.67297539  0.87565813  0.75868221    -0.11200
H148        H  0.69816596  0.92867706  0.67703225     0.08500
H149        H  0.69404263  0.92520087  0.84755060     0.06000
H150        H  0.66319847  0.85471521  0.75706285     0.05800
C151        C  0.72849063  0.05233972  0.76473025    -0.11100
C152        C  0.74425072  0.04145320  0.76482533     0.06100
C153        C  0.77130847  0.05809520  0.76373302    -0.09900
C154        C  0.78232801  0.08498778  0.76238653    -0.11500
C155        C  0.76652903  0.09578596  0.76218575    -0.01300
C156        C  0.73951584  0.07921977  0.76348895    -0.10400
C157        C  0.73249381  0.01286321  0.76536621     0.06100
H158        H  0.78398400  0.05033371  0.76455647     0.08000
H159        H  0.80322643  0.09733368  0.76182248     0.11500
H160        H  0.72688118  0.08703640  0.76343174     0.11700
H161        H  0.70758851  0.04006730  0.76479180     0.08000
C162        C  0.71041181  0.99691234  0.79638855    -0.11100
C163        C  0.69908157  0.96998540  0.79596414    -0.10400
C164        C  0.70951771  0.95846261  0.76432970    -0.01300
C165        C  0.73166244  0.97434516  0.73364066    -0.11500
C166        C  0.74306576  0.00126282  0.73423159    -0.09900
H167        H  0.70198287  0.00525744  0.82127492     0.08000
H168        H  0.68190474  0.95811497  0.81971473     0.11700
H169        H  0.74017048  0.96590924  0.70922777     0.11500
H170        H  0.75987847  0.01296558  0.70945352     0.08000
C171        C  0.68361251  0.23267731  0.74281369    -0.11100
C172        C  0.70495155  0.24129693  0.77733704     0.06100
C173        C  0.71135554  0.26217765  0.81142888    -0.09900
C174        C  0.69724381  0.27459136  0.81011870    -0.11500
C175        C  0.67632381  0.26642071  0.77479896    -0.01300
C176        C  0.66938743  0.24510248  0.74162823    -0.10400
C177        C  0.72102970  0.22917510  0.77696250     0.06100
H178        H  0.72727765  0.26891004  0.83934801     0.08000
H179        H  0.70267103  0.29061304  0.83698956     0.11500
H180        H  0.65345555  0.23852450  0.71376988     0.11700
H181        H  0.67835943  0.21680917  0.71565353     0.08000
C182        C  0.70963490  0.20222544  0.77132886    -0.11100
C183        C  0.72502558  0.19107611  0.77026267    -0.10400
C184        C  0.75207169  0.20668129  0.77471307    -0.01300
C185        C  0.76343380  0.23353696  0.78087336    -0.11500
C186        C  0.74810363  0.24466827  0.78187483    -0.09900
H187        H  0.68881955  0.18974240  0.76816001     0.08000
H188        H  0.71578831  0.17028629  0.76562610     0.11700
H189        H  0.78424680  0.24602503  0.78432573     0.11500
H190        H  0.75754107  0.26552150  0.78544306     0.08000
C191        C  0.55423765  0.25921267  0.72293130    -0.11100
C192        C  0.53937878  0.23731896  0.75556674     0.06100
C193        C  0.55205071  0.23124971  0.79520785    -0.09900
C194        C  0.57891722  0.24580339  0.80029028    -0.11500
C195        C  0.59372121  0.26710346  0.76664900    -0.01300
C196        C  0.58116247  0.27407999  0.72872639    -0.10400
C197        C  0.51096501  0.22024742  0.74744888     0.06100
H198        H  0.54123679  0.21509945  0.82227798     0.08000
H199        H  0.58819018  0.24038016  0.83047250     0.11500
H200        H  0.59228077  0.29043946  0.70224817     0.11700
H201        H  0.54523168  0.26437382  0.69171813     0.08000
C202        C  0.49555162  0.23042331  0.73138562    -0.11100
C203        C  0.46879204  0.21407947  0.72474900    -0.10400
C204        C  0.45696048  0.18733924  0.73456541    -0.01300
C205        C  0.47232050  0.17714759  0.74989910    -0.11500
C206        C  0.49899451  0.19334003  0.75580595    -0.09900
H207        H  0.50402595  0.25104508  0.72501688     0.08000
H208        H  0.45731272  0.22240854  0.71295042     0.11700
H209        H  0.46371614  0.15656602  0.75726486     0.11500
H210        H  0.51024125  0.18463835  0.76658171     0.08000
C211        C  0.74787052  0.44730171  0.81892428    -0.11100
C212        C  0.72978356  0.43385712  0.77805584     0.06100
C213        C  0.72979908  0.44786743  0.73279511    -0.09900
C214        C  0.74719158  0.47452233  0.72877501    -0.11500
C215        C  0.76540395  0.48760343  0.76916146    -0.01300
C216        C  0.76573284  0.47380912  0.81410342    -0.10400
C217        C  0.71166678  0.40528567  0.78156104     0.06100
H218        H  0.71677431  0.43825707  0.69975263     0.08000
H219        H  0.74678414  0.48480723  0.69352937     0.11500
H220        H  0.77952871  0.48362307  0.84599604     0.11700
H221        H  0.74820061  0.43750320  0.85496348     0.08000
C222        C  0.71897111  0.38950955  0.80861026    -0.11100
C223        C  0.70282182  0.36264032  0.80887342    -0.10400
C224        C  0.67930512  0.35064609  0.78051381    -0.01300
C225        C  0.67151260  0.36636440  0.75501641    -0.11500
C226        C  0.68733966  0.39335095  0.75613760    -0.09900
H227        H  0.73754645  0.39770663  0.82830875     0.08000
H228        H  0.70911015  0.35125669  0.83060181     0.11700
H229        H  0.65356438  0.35789364  0.73276582     0.11500
H230        H  0.68057719  0.40477660  0.73630589     0.08000
C231        C  0.27405756  0.21019411  0.69483280    -0.11100
C232        C  0.29579604  0.21776557  0.72747954     0.06100
C233        C  0.30409675  0.23908260  0.76151293    -0.09900
C234        C  0.29106498  0.25265282  0.76263130    -0.11500
C235        C  0.26950293  0.24526381  0.72959838    -0.01300
C236        C  0.26107754  0.22383960  0.69579242    -0.10400
C237        C  0.30995589  0.20366954  0.72582145     0.06100
H238        H  0.32062028  0.24518999  0.78752884     0.08000
H239        H  0.29816069  0.26924769  0.78865282     0.11500
H240        H  0.24438740  0.21759219  0.67019450     0.11700
H241        H  0.26735153  0.19397757  0.66789309     0.08000
C242        C  0.29645781  0.17643735  0.72395278    -0.11100
C243        C  0.30991446  0.16324040  0.72328243    -0.10400
C244        C  0.33710837  0.17704771  0.72404977    -0.01300
C245        C  0.35059306  0.20424507  0.72542378    -0.11500
C246        C  0.33716429  0.21741771  0.72641701    -0.09900
H247        H  0.27548661  0.16533157  0.72394972     0.08000
H248        H  0.29905577  0.14225245  0.72227804     0.11700
H249        H  0.37156468  0.21536832  0.72599530     0.11500
H250        H  0.34808621  0.23840794  0.72712829     0.08000
C251        C  0.99261026  0.64614910  0.70351166    -0.11100
C252        C  0.97718828  0.62368207  0.73392034     0.06100
C253        C  0.98880296  0.61159364  0.76027708    -0.09900
C254        C  0.01554814  0.62221713  0.75727849    -0.11500
C255        C  0.03097590  0.64488318  0.72735801    -0.01300
C256        C  0.01925134  0.65660387  0.70010813    -0.10400
C257        C  0.94915148  0.61335343  0.73901027     0.06100
H258        H  0.97728617  0.59431868  0.78419067     0.08000
H259        H  0.02421012  0.61280208  0.77837395     0.11500
H260        H  0.03080138  0.67421636  0.67716850     0.11700
H261        H  0.98403287  0.65564519  0.68240800     0.08000
C262        C  0.94012990  0.63024656  0.74907822    -0.11100
C263        C  0.91367477  0.62070574  0.75346987    -0.10400
C264        C  0.89579573  0.59412834  0.74762082    -0.01300
C265        C  0.90476280  0.57718086  0.73762915    -0.11500
C266        C  0.93127412  0.58671683  0.73358767    -0.09900
H267        H  0.95358574  0.65082641  0.75404742     0.08000
H268        H  0.90721598  0.63414121  0.76126446     0.11700
H269        H  0.89130054  0.55658404  0.73292650     0.11500
H270        H  0.93779992  0.57336917  0.72541285     0.08000
C271        C  0.86336115  0.20135843  0.42408002    -0.11100
C272        C  0.87511498  0.21857154  0.46681570     0.06100
C273        C  0.89951502  0.24100725  0.45894468    -0.09900
C274        C  0.91197715  0.24598827  0.40956201    -0.11500
C275        C  0.90036112  0.22858091  0.36700430    -0.01300
C276        C  0.87584798  0.20627477  0.37481937    -0.10400
C277        C  0.86216899  0.21267049  0.51968690     0.06100
H278        H  0.90889372  0.25479392  0.49093136     0.08000
H279        H  0.93065216  0.26355522  0.40457596     0.11500
H280        H  0.86654771  0.19226941  0.34317090     0.11700
H281        H  0.84475604  0.18371233  0.42915245     0.08000
C282        C  0.83539016  0.20270357  0.52331680    -0.11100
C283        C  0.82293578  0.19581587  0.57279481    -0.10400
C284        C  0.83696270  0.19864736  0.61972127    -0.01300
C285        C  0.86380956  0.20906558  0.61631618    -0.11500
C286        C  0.87630168  0.21606894  0.56680654    -0.09900
H287        H  0.82405482  0.20020031  0.48779863     0.08000
H288        H  0.80224803  0.18800504  0.57424657     0.11700
H289        H  0.87510749  0.21149851  0.65185770     0.11500
H290        H  0.89691175  0.22348420  0.56523310     0.08000
C291        C  0.89592925  0.23673021  0.07324776    -0.11100
C292        C  0.87129338  0.21430235  0.06778767     0.06100
C293        C  0.86002639  0.19815698  0.11266489    -0.09900
C294        C  0.87325797  0.20402875  0.16132582    -0.11500
C295        C  0.89798519  0.22630392  0.16645249    -0.01300
C296        C  0.90901134  0.24272251  0.12198183    -0.10400
C297        C  0.85778539  0.20753990  0.01521791     0.06100
H298        H  0.84092376  0.18094857  0.11033367     0.08000
H299        H  0.86431695  0.19085934  0.19468022     0.11500
H300        H  0.92787323  0.26024482  0.12476113     0.11700
H301        H  0.90544729  0.24945354  0.03956692     0.08000
C302        C  0.86059759  0.22706690  0.97971401    -0.11100
C303        C  0.84891547  0.22072494  0.92939693    -0.10400
C304        C  0.83375518  0.19472377  0.91391285    -0.01300
C305        C  0.83039271  0.17515682  0.94954531    -0.11500
C306        C  0.84246546  0.18148240  0.99942993    -0.09900
H307        H  0.87173458  0.24729973  0.99081517     0.08000
H308        H  0.85152209  0.23614137  0.90278858     0.11700
H309        H  0.81885658  0.15493815  0.93836835     0.11500
H310        H  0.84021515  0.16592198  0.02508005     0.08000
C311        C  0.81456154  0.62499487  0.41733640    -0.11100
C312        C  0.79558399  0.61555065  0.45764191     0.06100
C313        C  0.77151753  0.61297852  0.44638183    -0.09900
C314        C  0.76673130  0.62021922  0.39673877    -0.11500
C315        C  0.78580383  0.63006803  0.35685720    -0.01300
C316        C  0.80966192  0.63207445  0.36732513    -0.10400
C317        C  0.80059358  0.60818978  0.51114659     0.06100
H318        H  0.75618546  0.60509237  0.47579087     0.08000
H319        H  0.74795981  0.61795924  0.38936851     0.11500
H320        H  0.82475143  0.63977190  0.33736045     0.11700
H321        H  0.83339862  0.62746034  0.42476010     0.08000
C322        C  0.81523470  0.59619339  0.51649222    -0.11100
C323        C  0.81894967  0.58829718  0.56656503    -0.10400
C324        C  0.80796721  0.59205889  0.61233474    -0.01300
C325        C  0.79371393  0.60441015  0.60733822    -0.11500
C326        C  0.79016954  0.61250937  0.55733007    -0.09900
H327        H  0.82329520  0.59227847  0.48184019     0.08000
H328        H  0.83008790  0.57885777  0.56932588     0.11700
H329        H  0.78524521  0.60776355  0.64207208     0.11500
H330        H  0.77929162  0.62221999  0.55491070     0.08000
C331        C  0.79927431  0.64132610  0.06293665    -0.11100
C332        C  0.79504786  0.61632470  0.05576757     0.06100
C333        C  0.78677390  0.59912807  0.09948070    -0.09900
C334        C  0.78253044  0.60667919  0.14911507    -0.11500
C335        C  0.78646624  0.63158856  0.15609156    -0.01300
C336        C  0.79507389  0.64888445  0.11254385    -0.10400
C337        C  0.79929225  0.60822187  0.00291688     0.06100
H338        H  0.78302484  0.57961198  0.09501215     0.08000
H339        H  0.77550500  0.59278106  0.18163996     0.11500
H340        H  0.79867025  0.66835252  0.11690647     0.11700
H341        H  0.80609903  0.65515655  0.03029208     0.08000
C342        C  0.79153399  0.61515771  0.95576040    -0.11100
C343        C  0.79545972  0.60734771  0.90605587    -0.10400
C344        C  0.80718558  0.59245346  0.90266665    -0.01300
C345        C  0.81503403  0.58563016  0.94971068    -0.11500
C346        C  0.81114438  0.59343309  0.99927792    -0.09900
H347        H  0.78206633  0.62628449  0.95736169     0.08000
H348        H  0.78914407  0.61276894  0.87037594     0.11700
H349        H  0.82421290  0.57421981  0.94824503     0.11500
H350        H  0.81767737  0.58811800  0.03476939     0.08000
C351        C  0.67885943  0.70033208  0.26717538    -0.11100
C352        C  0.70581153  0.71453147  0.25989159     0.06100
C353        C  0.71857063  0.74156297  0.25346756    -0.09900
C354        C  0.70458172  0.75417163  0.25460832    -0.11500
C355        C  0.67762036  0.73991144  0.26190614    -0.01300
C356        C  0.66488401  0.71290143  0.26808975    -0.10400
C357        C  0.72047392  0.70105688  0.25936082     0.06100
H358        H  0.73937744  0.75294084  0.24828305     0.08000
H359        H  0.71484389  0.77504763  0.24978995     0.11500
H360        H  0.64409804  0.70146611  0.27352266     0.11700
H361        H  0.66854932  0.67943451  0.27156634     0.08000
C362        C  0.71527420  0.68183244  0.29754962    -0.11100
C363        C  0.72861831  0.66862886  0.29664989    -0.10400
C364        C  0.74759362  0.67447164  0.25768900    -0.01300
C365        C  0.75284059  0.69380408  0.21952431    -0.11500
C366        C  0.73941010  0.70698854  0.22038652    -0.09900
H367        H  0.70089397  0.67705348  0.32826868     0.08000
H368        H  0.72377516  0.65356356  0.32608029     0.11700
H369        H  0.76751773  0.69894461  0.18933176     0.11500
H370        H  0.74359420  0.72160296  0.19023283     0.08000
C371        C  0.64847159  0.80940886  0.01866551    -0.11100
C372        C  0.65909620  0.83627563  0.01341870     0.06100
C373        C  0.66629460  0.85150444  0.05983947    -0.09900
C374        C  0.66247001  0.84004939  0.11030292    -0.11500
C375        C  0.65157742  0.81318636  0.11533955    -0.01300
C376        C  0.64481648  0.79800394  0.06905977    -0.10400
C377        C  0.66239967  0.84838547  0.95988434     0.06100
H378        H  0.67499745  0.87231930  0.05715231     0.08000
H379        H  0.66800347  0.85219798  0.14535271     0.11500
H380        H  0.63627709  0.77720249  0.07181559     0.11700
H381        H  0.64244793  0.79708527  0.98385139     0.08000
C382        C  0.67062822  0.84004408  0.91598555    -0.11100
C383        C  0.67477216  0.85231552  0.86629122    -0.10400
C384        C  0.67078432  0.87318572  0.85941041    -0.01300
C385        C  0.66158061  0.88079701  0.90282980    -0.11500
C386        C  0.65751740  0.86860982  0.95240350    -0.09900
H387        H  0.67470346  0.82460998  0.92045262     0.08000
H388        H  0.68206255  0.84610524  0.83383928     0.11700
H389        H  0.65765469  0.89634418  0.89859537     0.11500
H390        H  0.65047535  0.87502894  0.98495440     0.08000
C391        C  0.67913535  0.83699512  0.48036451    -0.11100
C392        C  0.66174872  0.84359606  0.50139570     0.06100
C393        C  0.64016872  0.83886380  0.47060345    -0.09900
C394        C  0.63573157  0.82716670  0.42054070    -0.11500
C395        C  0.65280375  0.82000173  0.40028881    -0.01300
C396        C  0.67469907  0.82532048  0.43039858    -0.10400
C397        C  0.66598383  0.85509759  0.55545690     0.06100
H398        H  0.62630352  0.84354657  0.48585382     0.08000
H399        H  0.61864485  0.82318701  0.39825697     0.11500
H400        H  0.68824878  0.82008917  0.41566717     0.11700
H401        H  0.69618542  0.84083922  0.50260221     0.08000
C402        C  0.67464288  0.84597379  0.59776208    -0.11100
C403        C  0.67877909  0.85696010  0.64854149    -0.10400
C404        C  0.67445594  0.87738313  0.65799843    -0.01300
C405        C  0.66549325  0.88624577  0.61583757    -0.11500
C406        C  0.66134445  0.87527474  0.56521713    -0.09900
H407        H  0.67806308  0.83020200  0.59167608     0.08000
H408        H  0.68583968  0.84983421  0.68011209     0.11700
H409        H  0.66164851  0.90172614  0.62201550     0.11500
H410        H  0.65486934  0.88287923  0.53346230     0.08000
C411        C  0.51612703  0.70300875  0.21798358    -0.11100
C412        C  0.50280792  0.69157023  0.26564222     0.06100
C413        C  0.51707990  0.69563967  0.31284998    -0.09900
C414        C  0.54407575  0.71164898  0.31264123    -0.11500
C415        C  0.55712562  0.72397033  0.26533459    -0.01300
C416        C  0.54296858  0.71916648  0.21791553    -0.10400
C417        C  0.47410738  0.67677907  0.26624130     0.06100
H418        H  0.50732272  0.68723095  0.35025707     0.08000
H419        H  0.55463577  0.71508842  0.34969550     0.11500
H420        H  0.55264622  0.72815386  0.18074404     0.11700
H421        H  0.50572862  0.69975227  0.18076493     0.08000
C422        C  0.46048590  0.68578084  0.23646755    -0.11100
C423        C  0.43353579  0.67241122  0.23720731    -0.10400
C424        C  0.41951687  0.64977669  0.26797392    -0.01300
C425        C  0.43303579  0.64058569  0.29758267    -0.11500
C426        C  0.46011978  0.65402021  0.29684988    -0.09900
H427        H  0.47069302  0.70346479  0.21312972     0.08000
H428        H  0.42363010  0.67975103  0.21343644     0.11700
H429        H  0.42267246  0.62324033  0.32188468     0.11500
H430        H  0.47010581  0.64654173  0.31989906     0.08000
C431        C  0.33141453  0.68604988  0.23565809    -0.11100
C432        C  0.30939899  0.67746929  0.26786016     0.06100
C433        C  0.30269448  0.65715833  0.30436793    -0.09900
C434        C  0.31683520  0.64474373  0.30662496    -0.11500
C435        C  0.33807945  0.65252067  0.27271145    -0.01300
C436        C  0.34566236  0.67369511  0.23814017    -0.10400
C437        C  0.29242955  0.68835890  0.26081518     0.06100
H438        H  0.28615905  0.65052115  0.33047260     0.08000
H439        H  0.31092530  0.62875114  0.33424823     0.11500
H440        H  0.36191645  0.67993943  0.21139796     0.11700
H441        H  0.33692599  0.70152155  0.20687675     0.08000
C442        C  0.30296353  0.71509370  0.25314936    -0.11100
C443        C  0.28674103  0.72496575  0.24442804    -0.10400
C444        C  0.25970965  0.70827498  0.24307030    -0.01300
C445        C  0.24918662  0.68160762  0.25100312    -0.11500
C446        C  0.26537578  0.67175024  0.25975971    -0.09900
H447        H  0.32372342  0.72836273  0.25419808     0.08000
H448        H  0.29534780  0.74566382  0.23885406     0.11700
H449        H  0.22842833  0.66833315  0.25020986     0.11500
H450        H  0.25671443  0.65101095  0.26464299     0.08000
C451        C  0.18007593  0.71341562  0.98050531    -0.11100
C452        C  0.15309351  0.69710509  0.97608053     0.06100
C453        C  0.13818694  0.68792870  0.02288492    -0.09900
C454        C  0.14999302  0.69538828  0.07300918    -0.11500
C455        C  0.17691909  0.71215002  0.07721438    -0.01300
C456        C  0.19184569  0.72087956  0.03052188    -0.10400
C457        C  0.14049413  0.69063531  0.92285441     0.06100
H458        H  0.11731446  0.67557619  0.02073531     0.08000
H459        H  0.13802248  0.68842695  0.10840001     0.11500
H460        H  0.21265853  0.73369552  0.03262105     0.11700
H461        H  0.19209867  0.72048548  0.94520759     0.08000
C462        C  0.14872330  0.70983676  0.88301057    -0.11100
C463        C  0.13612265  0.70424821  0.83375024    -0.10400
C464        C  0.11496958  0.67935539  0.82335640    -0.01300
C465        C  0.10703805  0.65999040  0.86269416    -0.11500
C466        C  0.11969355  0.66555806  0.91195401    -0.09900
H467        H  0.16443667  0.72944130  0.89049607     0.08000
H468        H  0.14238275  0.71961185  0.80440077     0.11700
H469        H  0.09095616  0.64055151  0.85535895     0.11500
H470        H  0.11318755  0.65028120  0.94156430     0.08000
C471        C  0.13682145  0.70299560  0.42452208    -0.11100
C472        C  0.15152790  0.70864094  0.47153235     0.06100
C473        C  0.17854957  0.72043197  0.46769944    -0.09900
C474        C  0.19060398  0.72631106  0.41793051    -0.11500
C475        C  0.17587737  0.72048083  0.37100825    -0.01300
C476        C  0.14888920  0.70881154  0.37469374    -0.10400
C477        C  0.13870719  0.70171233  0.52436909     0.06100
H478        H  0.19039855  0.72528848  0.50325034     0.08000
H479        H  0.21146474  0.73539106  0.41618631     0.11500
H480        H  0.13710491  0.70412658  0.33907300     0.11700
H481        H  0.11593662  0.69362907  0.42625607     0.08000
C482        C  0.11812756  0.70559147  0.53536759    -0.11100
C483        C  0.10570223  0.69840959  0.58480665    -0.10400
C484        C  0.11359641  0.68718221  0.62418500    -0.01300
C485        C  0.13433660  0.68356676  0.61333494    -0.11500
C486        C  0.14675638  0.69075430  0.56397090    -0.09900
H487        H  0.11176942  0.71434747  0.50587141     0.08000
H488        H  0.09000096  0.70176736  0.59235995     0.11700
H489        H  0.14055197  0.67457610  0.64257417     0.11500
H490        H  0.16228851  0.68715801  0.55632855     0.08000
C491        C  0.08022362  0.31828386  0.24908936    -0.11100
C492        C  0.06428268  0.29115542  0.24727260     0.06100
C493        C  0.07568406  0.27620519  0.23820930    -0.09900
C494        C  0.10250737  0.28816974  0.23183199    -0.11500
C495        C  0.11835916  0.31528689  0.23402457    -0.01300
C496        C  0.10695187  0.33021243  0.24244479    -0.10400
C497        C  0.03585330  0.27870938  0.25406027     0.06100
H498        H  0.06391446  0.25525284  0.23695231     0.08000
H499        H  0.11085636  0.27621586  0.22556378     0.11500
H500        H  0.11873036  0.35115493  0.24440501     0.11700
H501        H  0.07198312  0.33034706  0.25507276     0.08000
C502        C  0.02564447  0.28807018  0.29208389    -0.11100
C503        C  0.99892277  0.27747216  0.29621994    -0.10400
C504        C  0.98181454  0.25726581  0.26243187    -0.01300
C505        C  0.99200026  0.24741149  0.22546523    -0.11500
C506        C  0.01871534  0.25801295  0.22132057    -0.09900
H507        H  0.03836056  0.30375047  0.31842076     0.08000
H508        H  0.99169610  0.28557629  0.32489005     0.11700
H509        H  0.97929324  0.23156795  0.19944939     0.11500
H510        H  0.02598355  0.25047387  0.19146251     0.08000
C511        C  0.29325670  0.46776509  0.24647426    -0.11100
C512        C  0.28361273  0.48461205  0.24673814     0.06100
C513        C  0.25671147  0.47406855  0.24414330    -0.09900
C514        C  0.23983729  0.44735727  0.24039413    -0.11500
C515        C  0.24945434  0.43055637  0.23929809    -0.01300
C516        C  0.27630554  0.44094369  0.24274055    -0.10400
C517        C  0.30132819  0.51311826  0.24930068     0.06100
H518        H  0.24866015  0.48649304  0.24539127     0.08000
H519        H  0.21921181  0.43985661  0.23829672     0.11500
H520        H  0.28419545  0.42836751  0.24215407     0.11700
H521        H  0.31390135  0.47534718  0.24813113     0.08000
C522        C  0.32298541  0.52416344  0.28333293    -0.11100
C523        C  0.33874415  0.55111237  0.28751291    -0.10400
C524        C  0.33308739  0.56746824  0.25784313    -0.01300
C525        C  0.31186615  0.55640499  0.22278412    -0.11500
C526        C  0.29619978  0.52955270  0.21850751    -0.09900
H527        H  0.32729900  0.51198848  0.30784466     0.08000
H528        H  0.35491425  0.55916174  0.31506075     0.11700
H529        H  0.30740348  0.56855661  0.19854507     0.11500
H530        H  0.28002021  0.52162485  0.19099600     0.08000
C531        C  0.24984568  0.31122720  0.91661264    -0.11100
C532        C  0.22612760  0.30954141  0.92674024     0.06100
C533        C  0.20714376  0.30017439  0.88649776    -0.09900
C534        C  0.21165168  0.29221057  0.83753022    -0.11500
C535        C  0.23520992  0.29343079  0.82793014    -0.01300
C536        C  0.25433080  0.30326827  0.86780356    -0.10400
C537        C  0.22122074  0.31719957  0.97947341     0.06100
H538        H  0.18858561  0.29842189  0.89334823     0.08000
H539        H  0.19647792  0.28449405  0.80768384     0.11500
H540        H  0.27285765  0.30492029  0.86112709     0.11700
H541        H  0.26503893  0.31886159  0.94640868     0.08000
C542        C  0.22923686  0.31046656  0.02646046    -0.11100
C543        C  0.22494479  0.31782579  0.07619470    -0.10400
C544        C  0.21254168  0.33207236  0.08002882    -0.01300
C545        C  0.20447370  0.33881394  0.03319224    -0.11500
C546        C  0.20871331  0.33138814  0.98335702    -0.09900
H547        H  0.23857092  0.29921297  0.02480346     0.08000
H548        H  0.23124923  0.31225937  0.11169163     0.11700
H549        H  0.19484701  0.34978960  0.03507819     0.11500
H550        H  0.20254839  0.33706071  0.94783028     0.08000
C551        C  0.20304126  0.32449140  0.47084945    -0.11100
C552        C  0.21468694  0.30952293  0.47506427     0.06100
C553        C  0.22234383  0.30244294  0.42852623    -0.09900
C554        C  0.21890037  0.31068809  0.37863951    -0.11500
C555        C  0.20766560  0.32604236  0.37455786    -0.01300
C556        C  0.19951523  0.33265143  0.42100905    -0.10400
C557        C  0.21958794  0.30202104  0.52800316     0.06100
H558        H  0.23154822  0.29107025  0.43087815     0.08000
H559        H  0.22530417  0.30531402  0.34334618     0.11500
H560        H  0.19057259  0.34426954  0.41885447     0.11700
H561        H  0.19669039  0.32989316  0.50619388     0.08000
C562        C  0.23075736  0.32051277  0.56872430    -0.11100
C563        C  0.23615109  0.31372690  0.61835029    -0.06400
C564        C  0.23039286  0.28830765  0.62817697    -0.01300
C565        C  0.21892209  0.26974133  0.58758013    -0.11500
C566        C  0.21363472  0.27656264  0.53787800    -0.09900
H567        H  0.23584956  0.34036005  0.56172287     0.08000
H568        H  0.24539726  0.32851381  0.64863270     0.11700
H569        H  0.21401907  0.24993697  0.59435569     0.11500
H570        H  0.20476752  0.26192318  0.50720309     0.08000
C571        C  0.36052855  0.07441607  0.38395037    -0.11100
C572        C  0.34338147  0.06290805  0.42719361     0.06100
C573        C  0.32021826  0.03915995  0.41897427    -0.09900
C574        C  0.31450942  0.02711962  0.36931423    -0.11500
C575        C  0.33200066  0.03818741  0.32662706    -0.01300
C576        C  0.35495277  0.06214712  0.33432970    -0.10400
C577        C  0.34957242  0.07545666  0.48064456     0.06100
H578        H  0.30662828  0.02946583  0.45120758     0.08000
H579        H  0.29640323  0.00892831  0.36452740     0.11500
H580        H  0.36890079  0.07113995  0.30237782     0.11700
H581        H  0.37829498  0.09294534  0.38830991     0.08000
C582        C  0.37532329  0.08982001  0.49902552    -0.11100
C583        C  0.38106934  0.10191654  0.54879529    -0.10400
C584        C  0.36117874  0.09960573  0.58160469    -0.01300
C585        C  0.33545524  0.08484059  0.56401306    -0.11500
C586        C  0.32972510  0.07309517  0.51397797    -0.09900
H587        H  0.39108248  0.09159579  0.47518932     0.08000
H588        H  0.40108136  0.11306172  0.56163856     0.11700
H589        H  0.31976146  0.08285844  0.58845257     0.11500
H590        H  0.30972284  0.06262501  0.50107705     0.08000
C591        C  0.36210177  0.10219979  0.96786009    -0.11100
C592        C  0.35232283  0.07540925  0.97132980     0.06100
C593        C  0.34820349  0.06138570  0.92393568    -0.09900
C594        C  0.35355966  0.07387363  0.87427622    -0.11500
C595        C  0.36301592  0.10058621  0.87105827    -0.01300
C596        C  0.36737093  0.11462998  0.91831325    -0.10400
C597        C  0.34607058  0.06217089  0.02417747     0.06100
H598        H  0.34101127  0.04078578  0.92526268     0.08000
H599        H  0.35012405  0.06260980  0.83842813     0.11500
H600        H  0.37470197  0.13526198  0.91700211     0.11700
H601        H  0.36517976  0.11351073  0.00346120     0.08000
C602        C  0.36211426  0.07416406  0.06861497    -0.11100
C603        C  0.35605246  0.06179596  0.11842100    -0.10400
C604        C  0.33373039  0.03715529  0.12506887    -0.01300
C605        C  0.31757123  0.02532484  0.08062784    -0.11500
C606        C  0.32372377  0.03760684  0.03083472    -0.09900
H607        H  0.37965686  0.09295689  0.06468805     0.08000
H608        H  0.36916876  0.07132537  0.15141587     0.11700
H609        H  0.29989191  0.00664502  0.08436694     0.11500
H610        H  0.31066925  0.02806181  0.99773459     0.08000
C611        C  0.23577114  0.85460404  0.22166707    -0.11100
C612        C  0.26258312  0.87159523  0.22820114     0.06100
C613        C  0.27872695  0.86122139  0.23219439    -0.09900
C614        C  0.26834015  0.83450750  0.22985107    -0.11500
C615        C  0.24158036  0.81756310  0.22356935    -0.01300
C616        C  0.22535435  0.82780705  0.21950030    -0.10400
C617        C  0.27388100  0.90006876  0.22998411     0.06100
H618        H  0.29948999  0.87379428  0.23633400     0.08000
H619        H  0.28128568  0.82710524  0.23315946     0.11500
H620        H  0.20463692  0.81511519  0.21476052     0.11700
H621        H  0.22281136  0.86200267  0.21895172     0.08000
C622        C  0.26484636  0.91218863  0.19548492    -0.11100
C623        C  0.27645511  0.93913311  0.19518986    -0.10400
C624        C  0.29725578  0.95448750  0.22950506    -0.01300
C625        C  0.30594884  0.94238487  0.26480241    -0.11500
C626        C  0.29438957  0.91545364  0.26502784    -0.09900
H627        H  0.24922425  0.90090342  0.16775045     0.08000
H628        H  0.26918682  0.94800730  0.16809443     0.11700
H629        H  0.32199997  0.95379643  0.29156732     0.11500
H630        H  0.30152632  0.90665934  0.29264398     0.08000
loop_ 
_geom_bond_atom_site_label_1 
_geom_bond_atom_site_label_2 
_geom_bond_distance 
_geom_bond_site_symmetry_2 
_ccdc_geom_bond_type 
C1            C2   1.406   1_545  A
C1            C6   1.411       .  A
C1          C604   1.491       .  S
C2            C3   1.401       .  A
C2            H7   1.083       .  S
C3            C4   1.399       .  A
C3          C624   1.480       .  S
C4            C5   1.405   1_565  A
C4            H8   1.083       .  S
C5            C6   1.409       .  A
C5          C575   1.488       .  S
C6            H9   1.083       .  S
In10         O12   2.247       .  S
In10         O13   2.239       .  S
In10         O21   2.253       .  S
In10         O15   2.235       .  S
In10         O17   2.236       .  S
In10         O18   2.241       .  S
In10         O19   2.248       .  S
In10         O22   2.233       .  S
C11         C495   1.475       .  S
C11          O17   1.261       .  A
C11          O19   1.261       .  A
O12          C20   1.261       .  A
O13          C20   1.260       .  A
C14         C515   1.475       .  S
C14          O21   1.260       .  A
C14          O15   1.260       .  A
C16         C555   1.471       .  S
C16          O18   1.261       .  A
C16          O22   1.259       .  A
C20         C544   1.475       .  S
In23         O25   2.245       .  S
In23         O26   2.256       .  S
In23         O34   2.250       .  S
In23         O28   2.236       .  S
In23         O30   2.234       .  S
In23         O31   2.247       .  S
In23         O32   2.255       .  S
In23         O35   2.238       .  S
C24         C615   1.474       .  S
C24          O30   1.258       .  A
C24          O32   1.260       .  A
O25          C33   1.259       .  A
O26          C33   1.259       .  A
C27         C444   1.475       .  S
C27          O34   1.262       .  A
C27          O28   1.259       .  A
C29         C475   1.474       .  S
C29          O31   1.261       .  A
C29          O35   1.259       .  A
C33         C455   1.477       .  S
C36          C37   1.402       .  A
C36          C41   1.400       .  A
C36         C435   1.479       .  S
C37          C38   1.404       .  A
C37          H42   1.084       .  S
C38          C39   1.404       .  A
C38         C524   1.481       .  S
C39          C40   1.405       .  A
C39          H43   1.083       .  S
C40          C41   1.405       .  A
C40         C424   1.480       .  S
C41          H44   1.084       .  S
In45         O47   2.239       .  S
In45         O48   2.262       .  S
In45         O56   2.237       .  S
In45         O50   2.236       .  S
In45         O52   2.256       .  S
In45         O53   2.261       .  S
In45         O54   2.228       .  S
In45         O57   2.229       .  S
C46         C415   1.472       .  S
C46          O52   1.262       .  A
C46          O54   1.259       .  A
O47          C55   1.258       .  A
O48          C55   1.261       .  A
C49         C355   1.471       .  S
C49          O56   1.260       .  A
C49          O50   1.261       .  A
C51         C375   1.476       .  S
C51          O53   1.263       .  A
C51          O57   1.258       .  A
C55         C395   1.478       .  S
C58          C59   1.405       .  A
C58          C63   1.402       .  A
C58         C315   1.482       .  S
C59          C60   1.408       .  A
C59          H64   1.083       .  S
C60          C61   1.405       .  A
C60         C335   1.484       .  S
C61          C62   1.402       .  A
C61          H65   1.083       .  S
C62          C63   1.401       .  A
C62         C364   1.484       .  S
C63          H66   1.083       .  S
C67          C68   1.404       .  A
C67          C72   1.406       .  A
C67         C295   1.487       .  S
C68          C69   1.403       .  A
C68          H73   1.083       .  S
C69          C70   1.405       .  A
C69         C504   1.486       .  S
C70          C71   1.407       .  A
C70          H74   1.083       .  S
C71          C72   1.407       .  A
C71         C275   1.488       .  S
C72          H75   1.083       .  S
C76          C77   1.403       .  A
C76          C81   1.406       .  A
C76         C484   1.482       .  S
C77          C78   1.401       .  A
C77          H82   1.084       .  S
C78          C79   1.401       .  A
C78         C255   1.476       .  S
C79          C80   1.403       .  A
C79          H83   1.084       .  S
C80          C81   1.405       .  A
C80         C464   1.480       .  S
C81          H84   1.083       .  S
C85          C86   1.406       .  A
C85          C90   1.404       .  A
C85         C535   1.484       .  S
C86          C87   1.404       .  A
C86          H91   1.083       .  S
C87          C88   1.401       .  A
C87         C235   1.483       .  S
C88          C89   1.403       .  A
C88          H92   1.084       .  S
C89          C90   1.405       .  A
C89         C564   1.480       .  S
C90          H93   1.083       .  S
In94         O96   2.231       .  S
In94         O97   2.247       .  S
In94        O105   2.251       .  S
In94         O99   2.237       .  S
In94        O101   2.229       .  S
In94        O102   2.262       .  S
In94        O103   2.232       .  S
In94        O106   2.229       .  S
C95         C264   1.468       .  S
C95         O101   1.261       .  A
C95         O103   1.262       .  A
O96         C104   1.261       .  A
O97         C104   1.265       .  A
C98         C215   1.468       .  S
C98         O105   1.258       .  A
C98          O99   1.256       .  A
C100        C344   1.475       .  S
C100        O102   1.262       .  A
C100        O106   1.257       .  A
C104        C324   1.475       .  S
C107        C108   1.400       .  A
C107        C112   1.401       .  A
C107        C175   1.482       .  S
C108        C109   1.404       .  A
C108        H113   1.083       .  S
C109        C110   1.406       .  A
C109        C224   1.487       .  S
C110        C111   1.404       .  A
C110        H114   1.083       .  S
C111        C112   1.405       .  A
C111        C195   1.477       .  S
C112        H115   1.084       .  S
In116       O118   2.259       .  S
In116       O119   2.254       .  S
In116       O127   2.227       .  S
In116       O121   2.242       .  S
In116       O123   2.244       .  S
In116       O124   2.259       .  S
In116       O125   2.253       .  S
In116       O128   2.240       .  S
C117        C244   1.476       .  S
C117        O123   1.259       .  A
C117        O125   1.260       .  A
O118        C126   1.256       .  A
O119        C126   1.257       .  A
C120        C204   1.473       .  S
C120        O127   1.263       .  A
C120        O121   1.263       .  A
C122        C595   1.477       .  S
C122        O124   1.261       .  A
C122        O128   1.259       .  A
C126        C584   1.476       .  S
In129       O131   2.249       .  S
In129       O132   2.259       .  S
In129       O140   2.239       .  S
In129       O134   2.250       .  S
In129       O136   2.236       .  S
In129       O137   2.256       .  S
In129       O138   2.243       .  S
In129       O141   2.246       .  S
C130        C155   1.476       .  S
C130        O136   1.263       .  A
C130        O138   1.264       .  A
O131        C139   1.259       .  A
O132        C139   1.260       .  A
C133        C184   1.475       .  S
C133        O140   1.259       .  A
C133        O134   1.260       .  A
C135        C304   1.474       .  S
C135        O137   1.260       .  A
C135        O141   1.257       .  A
C139        C284   1.480       .  S
C142        C143   1.404       .  A
C142        C147   1.409       .  A
C142        C404   1.486       .  S
C143        C144   1.400       .  A
C143        H148   1.083       .  S
C144        C145   1.400       .  A
C144        C164   1.480       .  S
C145        C146   1.406       .  A
C145        H149   1.083       .  S
C146        C147   1.410       .  A
C146        C384   1.489       .  S
C147        H150   1.083       .  S
C151        C152   1.406       .  A
C151        C156   1.397       .  A
C151        H161   1.083       .  S
C152        C153   1.407       .  A
C152        C157   1.485       .  S
C153        C154   1.398       .  A
C153        H158   1.082       .  S
C154        C155   1.404       .  A
C154        H159   1.083       .  S
C155        C156   1.404       .  A
C156        H160   1.083       .  S
C157        C162   1.407   1_545  A
C157        C166   1.406       .  A
C162        C163   1.397       .  A
C162        H167   1.083   1_565  S
C163        C164   1.404       .  A
C163        H168   1.083       .  S
C164        C165   1.404       .  A
C165        C166   1.396   1_565  A
C165        H169   1.083       .  S
C166        H170   1.083       .  S
C171        C172   1.407       .  A
C171        C176   1.400       .  A
C171        H181   1.083       .  S
C172        C173   1.404       .  A
C172        C177   1.485       .  S
C173        C174   1.393       .  A
C173        H178   1.083       .  S
C174        C175   1.404       .  A
C174        H179   1.083       .  S
C175        C176   1.405       .  A
C176        H180   1.083       .  S
C177        C182   1.406       .  A
C177        C186   1.406       .  A
C182        C183   1.399       .  A
C182        H187   1.083       .  S
C183        C184   1.404       .  A
C183        H188   1.083       .  S
C184        C185   1.403       .  A
C185        C186   1.395       .  A
C185        H189   1.083       .  S
C186        H190   1.083       .  S
C191        C192   1.408       .  A
C191        C196   1.399       .  A
C191        H201   1.082       .  S
C192        C193   1.408       .  A
C192        C197   1.488       .  S
C193        C194   1.394       .  A
C193        H198   1.082       .  S
C194        C195   1.401       .  A
C194        H199   1.083       .  S
C195        C196   1.404       .  A
C196        H200   1.083       .  S
C197        C202   1.408       .  A
C197        C206   1.407       .  A
C202        C203   1.400       .  A
C202        H207   1.082       .  S
C203        C204   1.404       .  A
C203        H208   1.083       .  S
C204        C205   1.401       .  A
C205        C206   1.393       .  A
C205        H209   1.083       .  S
C206        H210   1.082       .  S
C211        C212   1.409       .  A
C211        C216   1.395       .  A
C211        H221   1.081       .  S
C212        C213   1.409       .  A
C212        C217   1.490       .  S
C213        C214   1.395       .  A
C213        H218   1.082       .  S
C214        C215   1.400       .  A
C214        H219   1.083       .  S
C215        C216   1.401       .  A
C216        H220   1.083       .  S
C217        C222   1.406       .  A
C217        C226   1.408       .  A
C222        C223   1.393       .  A
C222        H227   1.081       .  S
C223        C224   1.407       .  A
C223        H228   1.082       .  S
C224        C225   1.405       .  A
C225        C226   1.397       .  A
C225        H229   1.082       .  S
C226        H230   1.082       .  S
C231        C232   1.405       .  A
C231        C236   1.398       .  A
C231        H241   1.083       .  S
C232        C233   1.406       .  A
C232        C237   1.484       .  S
C233        C234   1.396       .  A
C233        H238   1.083       .  S
C234        C235   1.404       .  A
C234        H239   1.083       .  S
C235        C236   1.406       .  A
C236        H240   1.083       .  S
C237        C242   1.406       .  A
C237        C246   1.405       .  A
C242        C243   1.399       .  A
C242        H247   1.083       .  S
C243        C244   1.404       .  A
C243        H248   1.083       .  S
C244        C245   1.404       .  A
C245        C246   1.396       .  A
C245        H249   1.083       .  S
C246        H250   1.083       .  S
C251        C252   1.403       .  A
C251        C256   1.393   1_655  A
C251        H261   1.083       .  S
C252        C253   1.404       .  A
C252        C257   1.475       .  S
C253        C254   1.397   1_655  A
C253        H258   1.083       .  S
C254        C255   1.404       .  A
C254        H259   1.083       .  S
C255        C256   1.403       .  A
C256        H260   1.083       .  S
C257        C262   1.404       .  A
C257        C266   1.404       .  A
C262        C263   1.393       .  A
C262        H267   1.083       .  S
C263        C264   1.402       .  A
C263        H268   1.083       .  S
C264        C265   1.404       .  A
C265        C266   1.396       .  A
C265        H269   1.083       .  S
C266        H270   1.083       .  S
C271        C272   1.406       .  A
C271        C276   1.398       .  A
C271        H281   1.083       .  S
C272        C273   1.405       .  A
C272        C277   1.487       .  S
C273        C274   1.400       .  A
C273        H278   1.083       .  S
C274        C275   1.407       .  A
C274        H279   1.083       .  S
C275        C276   1.406       .  A
C276        H280   1.083       .  S
C277        C282   1.406       .  A
C277        C286   1.406       .  A
C282        C283   1.398       .  A
C282        H287   1.083       .  S
C283        C284   1.405       .  A
C283        H288   1.083       .  S
C284        C285   1.405       .  A
C285        C286   1.400       .  A
C285        H289   1.083       .  S
C286        H290   1.083       .  S
C291        C292   1.407       .  A
C291        C296   1.396       .  A
C291        H301   1.082       .  S
C292        C293   1.408       .  A
C292        C297   1.491       .  S
C293        C294   1.399       .  A
C293        H298   1.082       .  S
C294        C295   1.405       .  A
C294        H299   1.083       .  S
C295        C296   1.405       .  A
C296        H300   1.083       .  S
C297        C302   1.409   1_554  A
C297        C306   1.408   1_554  A
C302        C303   1.398       .  A
C302        H307   1.082       .  S
C303        C304   1.402       .  A
C303        H308   1.083       .  S
C304        C305   1.403       .  A
C305        C306   1.397       .  A
C305        H309   1.083       .  S
C306        H310   1.082   1_556  S
C311        C312   1.409       .  A
C311        C316   1.400       .  A
C311        H321   1.082       .  S
C312        C313   1.405       .  A
C312        C317   1.488       .  S
C313        C314   1.393       .  A
C313        H318   1.083       .  S
C314        C315   1.404       .  A
C314        H319   1.083       .  S
C315        C316   1.404       .  A
C316        H320   1.083       .  S
C317        C322   1.406       .  A
C317        C326   1.409       .  A
C322        C323   1.397       .  A
C322        H327   1.083       .  S
C323        C324   1.405       .  A
C323        H328   1.083       .  S
C324        C325   1.402       .  A
C325        C326   1.397       .  A
C325        H329   1.083       .  S
C326        H330   1.082       .  S
C331        C332   1.404       .  A
C331        C336   1.396       .  A
C331        H341   1.083       .  S
C332        C333   1.406       .  A
C332        C337   1.484       .  S
C333        C334   1.397       .  A
C333        H338   1.083       .  S
C334        C335   1.405       .  A
C334        H339   1.083       .  S
C335        C336   1.406       .  A
C336        H340   1.083       .  S
C337        C342   1.407   1_554  A
C337        C346   1.404   1_554  A
C342        C343   1.399       .  A
C342        H347   1.083       .  S
C343        C344   1.403       .  A
C343        H348   1.083       .  S
C344        C345   1.405       .  A
C345        C346   1.395       .  A
C345        H349   1.083       .  S
C346        H350   1.083   1_556  S
C351        C352   1.404       .  A
C351        C356   1.394       .  A
C351        H361   1.083       .  S
C352        C353   1.404       .  A
C352        C357   1.477       .  S
C353        C354   1.397       .  A
C353        H358   1.083       .  S
C354        C355   1.405       .  A
C354        H359   1.083       .  S
C355        C356   1.403       .  A
C356        H360   1.083       .  S
C357        C362   1.403       .  A
C357        C366   1.404       .  A
C362        C363   1.393       .  A
C362        H367   1.083       .  S
C363        C364   1.406       .  A
C363        H368   1.082       .  S
C364        C365   1.406       .  A
C365        C366   1.397       .  A
C365        H369   1.083       .  S
C366        H370   1.083       .  S
C371        C372   1.405       .  A
C371        C376   1.397       .  A
C371        H381   1.083   1_554  S
C372        C373   1.409       .  A
C372        C377   1.487   1_554  S
C373        C374   1.399       .  A
C373        H378   1.082       .  S
C374        C375   1.402       .  A
C374        H379   1.083       .  S
C375        C376   1.405       .  A
C376        H380   1.083       .  S
C377        C382   1.408       .  A
C377        C386   1.404       .  A
C382        C383   1.400       .  A
C382        H387   1.082       .  S
C383        C384   1.406       .  A
C383        H388   1.083       .  S
C384        C385   1.407       .  A
C385        C386   1.396       .  A
C385        H389   1.082       .  S
C386        H390   1.083       .  S
C391        C392   1.405       .  A
C391        C396   1.397       .  A
C391        H401   1.083       .  S
C392        C393   1.408       .  A
C392        C397   1.487       .  S
C393        C394   1.400       .  A
C393        H398   1.083       .  S
C394        C395   1.404       .  A
C394        H399   1.083       .  S
C395        C396   1.405       .  A
C396        H400   1.083       .  S
C397        C402   1.408       .  A
C397        C406   1.404       .  A
C402        C403   1.400       .  A
C402        H407   1.083       .  S
C403        C404   1.405       .  A
C403        H408   1.083       .  S
C404        C405   1.407       .  A
C405        C406   1.396       .  A
C405        H409   1.083       .  S
C406        H410   1.083       .  S
C411        C412   1.405       .  A
C411        C416   1.393       .  A
C411        H421   1.083       .  S
C412        C413   1.407       .  A
C412        C417   1.482       .  S
C413        C414   1.399       .  A
C413        H418   1.083       .  S
C414        C415   1.404       .  A
C414        H419   1.083       .  S
C415        C416   1.402       .  A
C416        H420   1.083       .  S
C417        C422   1.405       .  A
C417        C426   1.406       .  A
C422        C423   1.392       .  A
C422        H427   1.083       .  S
C423        C424   1.403       .  A
C423        H428   1.083       .  S
C424        C425   1.406       .  A
C425        C426   1.399       .  A
C425        H429   1.083       .  S
C426        H430   1.083       .  S
C431        C432   1.406       .  A
C431        C436   1.398       .  A
C431        H441   1.083       .  S
C432        C433   1.405       .  A
C432        C437   1.483       .  S
C433        C434   1.395       .  A
C433        H438   1.083       .  S
C434        C435   1.403       .  A
C434        H439   1.083       .  S
C435        C436   1.404       .  A
C436        H440   1.083       .  S
C437        C442   1.405       .  A
C437        C446   1.406       .  A
C442        C443   1.398       .  A
C442        H447   1.083       .  S
C443        C444   1.406       .  A
C443        H448   1.083       .  S
C444        C445   1.402       .  A
C445        C446   1.396       .  A
C445        H449   1.083       .  S
C446        H450   1.083       .  S
C451        C452   1.405       .  A
C451        C456   1.396   1_556  A
C451        H461   1.083       .  S
C452        C453   1.407   1_556  A
C452        C457   1.484       .  S
C453        C454   1.399       .  A
C453        H458   1.083       .  S
C454        C455   1.405       .  A
C454        H459   1.083       .  S
C455        C456   1.404       .  A
C456        H460   1.083       .  S
C457        C462   1.406       .  A
C457        C466   1.405       .  A
C462        C463   1.396       .  A
C462        H467   1.083       .  S
C463        C464   1.404       .  A
C463        H468   1.083       .  S
C464        C465   1.405       .  A
C465        C466   1.398       .  A
C465        H469   1.083       .  S
C466        H470   1.082       .  S
C471        C472   1.406       .  A
C471        C476   1.397       .  A
C471        H481   1.083       .  S
C472        C473   1.405       .  A
C472        C477   1.482       .  S
C473        C474   1.396       .  A
C473        H478   1.083       .  S
C474        C475   1.404       .  A
C474        H479   1.083       .  S
C475        C476   1.404       .  A
C476        H480   1.083       .  S
C477        C482   1.405       .  A
C477        C486   1.405       .  A
C482        C483   1.397       .  A
C482        H487   1.083       .  S
C483        C484   1.406       .  A
C483        H488   1.083       .  S
C484        C485   1.404       .  A
C485        C486   1.395       .  A
C485        H489   1.083       .  S
C486        H490   1.083       .  S
C491        C492   1.405       .  A
C491        C496   1.395       .  A
C491        H501   1.083       .  S
C492        C493   1.407       .  A
C492        C497   1.484       .  S
C493        C494   1.399       .  A
C493        H498   1.083       .  S
C494        C495   1.404       .  A
C494        H499   1.083       .  S
C495        C496   1.403       .  A
C496        H500   1.083       .  S
C497        C502   1.406       .  A
C497        C506   1.404       .  A
C502        C503   1.397   1_455  A
C502        H507   1.083       .  S
C503        C504   1.405       .  A
C503        H508   1.083       .  S
C504        C505   1.407       .  A
C505        C506   1.397   1_655  A
C505        H509   1.083       .  S
C506        H510   1.083       .  S
C511        C512   1.406       .  A
C511        C516   1.400       .  A
C511        H521   1.083       .  S
C512        C513   1.405       .  A
C512        C517   1.483       .  S
C513        C514   1.394       .  A
C513        H518   1.083       .  S
C514        C515   1.403       .  A
C514        H519   1.083       .  S
C515        C516   1.405       .  A
C516        H520   1.083       .  S
C517        C522   1.406       .  A
C517        C526   1.405       .  A
C522        C523   1.399       .  A
C522        H527   1.083       .  S
C523        C524   1.405       .  A
C523        H528   1.083       .  S
C524        C525   1.404       .  A
C525        C526   1.394       .  A
C525        H529   1.083       .  S
C526        H530   1.083       .  S
C531        C532   1.405       .  A
C531        C536   1.395       .  A
C531        H541   1.083       .  S
C532        C533   1.406       .  A
C532        C537   1.484       .  S
C533        C534   1.399       .  A
C533        H538   1.083       .  S
C534        C535   1.406       .  A
C534        H539   1.083       .  S
C535        C536   1.404       .  A
C536        H540   1.083       .  S
C537        C542   1.406   1_556  A
C537        C546   1.406       .  A
C542        C543   1.396       .  A
C542        H547   1.083       .  S
C543        C544   1.403       .  A
C543        H548   1.083       .  S
C544        C545   1.404       .  A
C545        C546   1.399   1_554  A
C545        H549   1.083       .  S
C546        H550   1.083       .  S
C551        C552   1.403       .  A
C551        C556   1.395       .  A
C551        H561   1.084       .  S
C552        C553   1.405       .  A
C552        C557   1.476       .  S
C553        C554   1.396       .  A
C553        H558   1.083       .  S
C554        C555   1.403       .  A
C554        H559   1.083       .  S
C555        C556   1.404       .  A
C556        H560   1.083       .  S
C557        C562   1.404       .  A
C557        C566   1.403       .  A
C562        C563   1.395       .  A
C562        H567   1.083       .  S
C563        C564   1.404       .  A
C563        H568   1.083       .  S
C564        C565   1.406       .  A
C565        C566   1.396       .  A
C565        H569   1.083       .  S
C566        H570   1.084       .  S
C571        C572   1.409       .  A
C571        C576   1.400       .  A
C571        H581   1.082       .  S
C572        C573   1.406       .  A
C572        C577   1.492       .  S
C573        C574   1.395       .  A
C573        H578   1.082       .  S
C574        C575   1.406       .  A
C574        H579   1.083       .  S
C575        C576   1.405       .  A
C576        H580   1.083       .  S
C577        C582   1.408       .  A
C577        C586   1.408       .  A
C582        C583   1.399       .  A
C582        H587   1.082       .  S
C583        C584   1.404       .  A
C583        H588   1.083       .  S
C584        C585   1.402       .  A
C585        C586   1.397       .  A
C585        H589   1.083       .  S
C586        H590   1.082       .  S
C591        C592   1.405       .  A
C591        C596   1.396       .  A
C591        H601   1.083   1_556  S
C592        C593   1.408       .  A
C592        C597   1.488   1_556  S
C593        C594   1.400       .  A
C593        H598   1.083       .  S
C594        C595   1.404       .  A
C594        H599   1.083       .  S
C595        C596   1.404       .  A
C596        H600   1.083       .  S
C597        C602   1.407       .  A
C597        C606   1.404       .  A
C602        C603   1.399       .  A
C602        H607   1.083       .  S
C603        C604   1.406       .  A
C603        H608   1.082       .  S
C604        C605   1.408       .  A
C605        C606   1.397       .  A
C605        H609   1.082       .  S
C606        H610   1.083   1_554  S
C611        C612   1.407       .  A
C611        C616   1.399       .  A
C611        H621   1.083       .  S
C612        C613   1.405       .  A
C612        C617   1.484       .  S
C613        C614   1.394       .  A
C613        H618   1.083       .  S
C614        C615   1.403       .  A
C614        H619   1.083       .  S
C615        C616   1.404       .  A
C616        H620   1.083       .  S
C617        C622   1.405       .  A
C617        C626   1.406       .  A
C622        C623   1.396       .  A
C622        H627   1.083       .  S
C623        C624   1.404       .  A
C623        H628   1.083       .  S
C624        C625   1.404       .  A
C625        C626   1.396       .  A
C625        H629   1.083       .  S
C626        H630   1.083       .  S
