geometry optimzed in LAMMPS
_audit_creation_date              2020-12-01 
_audit_creation_method            'lammps2cif' 
_symmetry_space_group_name_H-M    'P1' 
_symmetry_Int_Tables_number       1 
_symmetry_cell_setting            triclinic 
loop_ 
_symmetry_equiv_pos_as_xyz 
  x,y,z 
_cell_length_a                    41.87214003 
_cell_length_b                    42.046543633334025 
_cell_length_c                    31.144581704262478 
_cell_angle_alpha                 90.20876018684083 
_cell_angle_beta                  89.90174977224852 
_cell_angle_gamma                 120.25257648945188 
loop_ 
_atom_site_label 
_atom_site_type_symbol 
_atom_site_fract_x 
_atom_site_fract_y 
_atom_site_fract_z 
_atom_site_charge 
O1          O  0.59395437  0.67762675  0.29807424    -0.81400
C2          C  0.46444153  0.60170450  0.19610177     0.97900
O3          O  0.47934802  0.58679542  0.21696759    -0.70600
O4          O  0.54909509  0.61228371  0.20091833    -0.74200
Al5        Al  0.52325309  0.60688218  0.25217641     1.49000
C6          C  0.58157978  0.63656410  0.19172273     0.93200
O7          O  0.56733372  0.70874738  0.19645701    -0.80400
O8          O  0.51199432  0.68876180  0.30487881    -0.73900
Al9        Al  0.57807211  0.69103247  0.24760868     1.90100
O10         O  0.51583931  0.70414459  0.21931720    -0.73000
O11         O  0.46259532  0.61989254  0.29055120    -0.72900
O12         O  0.47175244  0.63399402  0.20422660    -0.78500
O13         O  0.49609133  0.59463483  0.30372076    -0.76700
O14         O  0.53180236  0.65283406  0.25149444    -1.12900
O15         O  0.56524079  0.61774372  0.28751746    -0.72000
C16         C  0.58859557  0.64620086  0.30770952     0.98700
C17         C  0.54230281  0.71694167  0.19289181     0.95100
Al18       Al  0.49390288  0.66098405  0.25455096     1.55600
O19         O  0.59704380  0.66720509  0.21097380    -0.76700
C20         C  0.46837649  0.59774218  0.31157499     0.99200
C21         C  0.54296930  0.71764385  0.30822793     0.94100
O22         O  0.56960361  0.72355076  0.28380164    -0.82000
O23         O  0.30591601  0.38260255  0.45296567    -0.81400
C24         C  0.36872882  0.50964618  0.06029752     0.97900
O25         O  0.38393286  0.49577486  0.03861571    -0.70600
O26         O  0.35674696  0.42713325  0.06214294    -0.74200
Al27       Al  0.36539742  0.45092391  0.50893659     1.49000
C28         C  0.33362659  0.39353348  0.06858617     0.93200
O29         O  0.25569111  0.39503803  0.04820736    -0.80400
O30         O  0.28000168  0.45856436  0.45283146    -0.73900
Al31       Al  0.28321981  0.39177651  0.00133134     1.90100
O32         O  0.26555732  0.45101574  0.03869421    -0.73000
O33         O  0.34931302  0.50726241  0.46655555    -0.72900
O34         O  0.33503779  0.49877568  0.05442836    -0.78500
O35         O  0.37738950  0.47556241  0.45550514    -0.76700
O36         O  0.31846714  0.43954326  0.50472788    -1.12900
O37         O  0.36086790  0.40884512  0.48069525    -0.72000
C38         C  0.33866232  0.38867789  0.45228387     0.98700
C39         C  0.24850486  0.42008533  0.05701645     0.95100
Al40       Al  0.30807313  0.47575561  0.50340368     1.55600
O41         O  0.30653888  0.37572113  0.04314692    -0.76700
C42         C  0.37214305  0.50173096  0.44562577     0.99200
C43         C  0.25634556  0.42664578  0.44081008     0.94100
O44         O  0.25295008  0.39879496  0.46028251    -0.82000
O45         O  0.06838128  0.38776455  0.30588669    -0.81400
C46         C  0.12990073  0.51321193  0.19594846     0.97900
O47         O  0.10366123  0.50152069  0.22220927    -0.70600
O48         O  0.05374803  0.43398750  0.20481643    -0.74200
Al49       Al  0.07759934  0.45842335  0.25521794     1.49000
C50         C  0.04087841  0.40036173  0.19633041     0.93200
O51         O  0.11945383  0.39643909  0.20028975    -0.80400
O52         O  0.17131960  0.45993204  0.29454850    -0.73900
Al53       Al  0.09485446  0.39543899  0.25255275     1.90100
O54         O  0.17010498  0.45013299  0.20790381    -0.73000
O55         O  0.15674697  0.51285459  0.28506745    -0.72900
O56         O  0.15134512  0.50037462  0.19714226    -0.78500
O57         O  0.09893476  0.48411387  0.30651463    -0.76700
O58         O  0.11040217  0.44365622  0.25113720    -1.12900
O59         O  0.04213440  0.41925285  0.28884279    -0.72000
C60         C  0.04462499  0.39710999  0.31346325     0.98700
C61         C  0.15196893  0.41963321  0.18894913     0.95100
Al62       Al  0.15827286  0.47767679  0.24651157     1.55600
O63         O  0.05129802  0.38135111  0.21741418    -0.76700
C64         C  0.13203420  0.50944193  0.31110982     0.99200
C65         C  0.16255973  0.42756502  0.30456705     0.94100
O66         O  0.13521028  0.40021844  0.28712311    -0.82000
O67         O  0.59855078  0.90452485  0.44961183    -0.81400
C68         C  0.47285173  0.85921766  0.05677354     0.97900
O69         O  0.48898361  0.88842777  0.03503328    -0.70600
O70         O  0.55851047  0.92562779  0.05283025    -0.74200
Al71       Al  0.53397876  0.91055347  0.50114768     1.49000
C72         C  0.59175880  0.93480456  0.05794670     0.93200
O73         O  0.57232481  0.84694069  0.05212827    -0.80400
O74         O  0.51318717  0.81424824  0.44641373    -0.73900
Al75       Al  0.58318610  0.87547326  0.00092737     1.90100
O76         O  0.51783786  0.80228782  0.03207317    -0.73000
O77         O  0.46969438  0.84086514  0.46165073    -0.72900
O78         O  0.47767888  0.83262224  0.04859494    -0.78500
O79         O  0.50817886  0.89872597  0.44944647    -0.76700
O80         O  0.53842895  0.87092252  0.49981462    -1.12900
O81         O  0.57742742  0.94102949  0.46767970    -0.72000
C82         C  0.59738875  0.93365103  0.44402093     0.98700
C83         C  0.54525641  0.81469347  0.05723624     0.95100
Al84       Al  0.49802175  0.82655907  0.49744380     1.55600
O85         O  0.60591482  0.91923052  0.03682995    -0.76700
C86         C  0.47900047  0.86962576  0.43990746     0.99200
C87         C  0.54322390  0.81491363  0.44024109     0.94100
O88         O  0.57060929  0.83387230  0.46456226    -0.82000
O89         O  0.90828407  0.31064097  0.45322968    -0.81400
C90         C  0.84149868  0.37346730  0.05484937     0.97900
O91         O  0.87052034  0.39008173  0.03298862    -0.70600
O92         O  0.91339038  0.36496139  0.05984729    -0.74200
Al93       Al  0.89833249  0.37157500  0.50521022     1.49000
C94         C  0.92629655  0.34395911  0.06634340     0.93200
O95         O  0.84528537  0.26491883  0.05069306    -0.80400
O96         O  0.80758444  0.28520399  0.44868753    -0.73900
Al97       Al  0.87628880  0.28975793  0.00243802     1.90100
O98         O  0.79781504  0.27104537  0.03397730    -0.73000
O99         O  0.82600334  0.35335076  0.46026034    -0.72900
O100        O  0.81907986  0.33995958  0.04818263    -0.78500
O101        O  0.88606776  0.38156721  0.45077421    -0.76700
O102        O  0.86324053  0.32452814  0.50201153    -1.12900
O103        O  0.93612682  0.36649422  0.47819017    -0.72000
C104        C  0.93478464  0.34349362  0.45141301     0.98700
C105        C  0.81233197  0.25722078  0.05725619     0.95100
Al106      Al  0.81636409  0.31330022  0.49830254     1.55600
O107        O  0.91643544  0.31548804  0.04331815    -0.76700
C108        C  0.85456774  0.37530415  0.43908485     0.99200
C109        C  0.81581973  0.26121233  0.43892980     0.94100
O110        O  0.83883420  0.25756920  0.46149731    -0.82000
O111        O  0.67869996  0.06766263  0.30122027    -0.81400
C112        C  0.59809523  0.11579739  0.19772648     0.97900
O113        O  0.58595062  0.08623343  0.21859199    -0.70600
O114        O  0.61576965  0.04650244  0.20144645    -0.74200
Al115      Al  0.60790060  0.06455775  0.25278393     1.49000
C116        C  0.64189002  0.04121626  0.19165512     0.93200
O117        O  0.71219003  0.12652332  0.19939785    -0.80400
O118        O  0.68885769  0.16075978  0.30490639    -0.73900
Al119      Al  0.69302891  0.09740753  0.25046568     1.90100
O120        O  0.70194871  0.17030777  0.21891075    -0.73000
O121        O  0.61904345  0.13699897  0.29174104    -0.72900
O122        O  0.63059406  0.14187313  0.20459383    -0.78500
O123        O  0.59439242  0.07823139  0.30460222    -0.76700
O124        O  0.65346960  0.10344555  0.25268108    -1.12900
O125        O  0.61953877  0.03417284  0.28662475    -0.72000
C126        C  0.64737654  0.03964959  0.30811492     0.98700
C127        C  0.71807760  0.15888291  0.19453107     0.95100
Al128      Al  0.65963080  0.14849228  0.25482824     1.55600
O129        O  0.67112698  0.05517789  0.21362103    -0.76700
C130        C  0.59751683  0.10895436  0.31325970     0.99200
C131        C  0.71850028  0.16018284  0.30888506     0.94100
O132        O  0.72435806  0.13874143  0.28619100    -0.82000
O133        O  0.91720875  0.59835280  0.29574618    -0.81400
C134        C  0.84825814  0.46861273  0.19160569     0.97900
O135        O  0.87902036  0.48250231  0.21058742    -0.70600
O136        O  0.92476679  0.55176270  0.19029744    -0.74200
Al137      Al  0.90737968  0.52679574  0.24317698     1.49000
C138        C  0.93528524  0.58518191  0.18339871     0.93200
O139        O  0.85269308  0.57955275  0.19994777    -0.80400
O140        O  0.81842480  0.52133217  0.30452806    -0.73900
Al141      Al  0.88418497  0.58599114  0.24780092     1.90100
O142        O  0.80556875  0.52687316  0.21911316    -0.73000
O143        O  0.83445643  0.47040257  0.28615166    -0.72900
O144        O  0.82583404  0.47931641  0.20041085    -0.78500
O145        O  0.89431307  0.50094902  0.29583009    -0.76700
O146        O  0.87223087  0.53857709  0.24761431    -1.12900
O147        O  0.94359399  0.56755360  0.27482199    -0.72000
C148        C  0.94327691  0.59153310  0.29885343     0.98700
C149        C  0.81909547  0.55502229  0.19551365     0.95100
Al150      Al  0.82517471  0.50276352  0.25222419     1.55600
O151        O  0.92444772  0.60235957  0.20720031    -0.76700
C152        C  0.86278784  0.47470402  0.30557967     0.99200
C153        C  0.82457397  0.55338454  0.31170195     0.94100
O154        O  0.84660618  0.58002374  0.28831390    -0.82000
O155        O  0.38480035  0.07789820  0.44642306    -0.81400
C156        C  0.50178181  0.11825101  0.06391567     0.97900
O157        O  0.48672809  0.08985216  0.04043663    -0.70600
O158        O  0.41605646  0.05071473  0.05044624    -0.74200
Al159      Al  0.44656652  0.07034868  0.50188765     1.49000
C160        C  0.38285655  0.04227660  0.05369973     0.93200
O161        O  0.40136563  0.12959104  0.05202549    -0.80400
O162        O  0.46848082  0.16877012  0.45262597    -0.73900
Al163      Al  0.39476310  0.10389383  0.99953739     1.90100
O164        O  0.45711813  0.17577217  0.03824947    -0.73000
O165        O  0.51256227  0.14355354  0.47014664    -0.72900
O166        O  0.49717722  0.14514560  0.05649894    -0.78500
O167        O  0.47660416  0.08544811  0.45308028    -0.76700
O168        O  0.44117953  0.10962384  0.50197704    -1.12900
O169        O  0.40625700  0.04155161  0.46361300    -0.72000
C170        C  0.38722400  0.04964439  0.43948386     0.98700
C171        C  0.42734340  0.16189281  0.05953139     0.95100
Al172      Al  0.48094878  0.15457138  0.50431559     1.55600
O173        O  0.37010964  0.05873681  0.03207264    -0.76700
C174        C  0.50574960  0.11574412  0.44773507     0.99200
C175        C  0.43865367  0.16808481  0.44487399     0.94100
O176        O  0.40981061  0.14738286  0.46611258    -0.82000
O177        O  0.67942605  0.60280304  0.44866638    -0.81400
C178        C  0.60241711  0.47006179  0.04923656     0.97900
O179        O  0.58960910  0.48355759  0.02332866    -0.70600
O180        O  0.61454530  0.55231412  0.04534535    -0.74200
Al181      Al  0.61216654  0.52948316  0.49308262     1.49000
C182        C  0.63866691  0.58436958  0.05696797     0.93200
O183        O  0.71820382  0.57991652  0.04794638    -0.80400
O184        O  0.70066488  0.51962882  0.45120896    -0.73900
Al185      Al  0.69507800  0.58650580  0.99830813     1.90100
O186        O  0.70667859  0.52354087  0.03847543    -0.73000
O187        O  0.62950924  0.47171627  0.45749942    -0.72900
O188        O  0.63599123  0.47929732  0.04674509    -0.78500
O189        O  0.60417786  0.50476032  0.43997459    -0.76700
O190        O  0.65898112  0.53980747  0.49627736    -1.12900
O191        O  0.62073895  0.57129853  0.46223123    -0.72000
C192        C  0.64717966  0.59722853  0.44277257     0.98700
C193        C  0.72291478  0.55363084  0.05844849     0.95100
Al194      Al  0.66772166  0.50216679  0.49807759     1.55600
O195        O  0.66948693  0.60186150  0.03769943    -0.76700
C196        C  0.60829328  0.47736311  0.43389443     0.99200
C197        C  0.72556051  0.55182103  0.44172631     0.94100
O198        O  0.72747775  0.57974849  0.45973967    -0.82000
O199        O  0.38962146  0.30680747  0.30638223    -0.81400
C200        C  0.50712172  0.37409584  0.18539158     0.97900
O201        O  0.49601691  0.38954470  0.21122672    -0.70600
O202        O  0.42519242  0.36167769  0.19894129    -0.74200
Al203      Al  0.45404079  0.37033027  0.24803290     1.49000
C204        C  0.39125210  0.33836136  0.19617457     0.93200
O205        O  0.40138098  0.26330976  0.20348216    -0.80400
O206        O  0.47060757  0.29019843  0.29745585    -0.73900
Al207      Al  0.39836589  0.28737491  0.25436284     1.90100
O208        O  0.45720986  0.27206254  0.21314313    -0.73000
O209        O  0.51721224  0.35901136  0.27827121    -0.72900
O210        O  0.49923262  0.34133747  0.19181692    -0.78500
O211        O  0.48330803  0.38280302  0.29764315    -0.76700
O212        O  0.44489814  0.32439130  0.24919308    -1.12900
O213        O  0.41456839  0.36340569  0.28407745    -0.72000
C214        C  0.39514367  0.33906127  0.31096448     0.98700
C215        C  0.42650068  0.25617378  0.19417878     0.95100
Al216      Al  0.48277800  0.31625118  0.24545380     1.55600
O217        O  0.37672746  0.30954528  0.21900192    -0.76700
C218        C  0.51142474  0.37972613  0.30261830     0.99200
C219        C  0.43972796  0.26426091  0.30968742     0.94100
O220        O  0.41045583  0.25835923  0.29092521    -0.82000
O221        O  0.06557292  0.66985340  0.45688908    -0.81400
C222        C  0.12540267  0.60406481  0.05828328     0.97900
O223        O  0.09380235  0.59819705  0.04785181    -0.70600
O224        O  0.04524792  0.61689871  0.02741263    -0.74200
Al225      Al  0.07997185  0.61019143  0.49527244     1.49000
C226        C  0.04659386  0.64248942  0.04984767     0.93200
O227        O  0.14379430  0.72498385  0.03694616    -0.80400
O228        O  0.18310572  0.70905268  0.46473535    -0.73900
Al229      Al  0.10591758  0.69352339  0.99718504     1.90100
O230        O  0.17388693  0.69606122  0.05058200    -0.73000
O231        O  0.16022405  0.63959218  0.45060296    -0.72900
O232        O  0.15380091  0.62727670  0.03811671    -0.78500
O233        O  0.10584620  0.59199472  0.46306520    -0.76700
O234        O  0.11650866  0.65702886  0.49777404    -1.12900
O235        O  0.06218300  0.61707440  0.44252848    -0.72000
C236        C  0.05352818  0.64107809  0.43413129     0.98700
C237        C  0.16705588  0.72133511  0.05887761     0.95100
Al238      Al  0.16345696  0.66706512  0.50073995     1.55600
O239        O  0.07332806  0.67487277  0.04551260    -0.76700
C240        C  0.13625045  0.60649940  0.44353201     0.99200
C241        C  0.16972133  0.72498320  0.44339320     0.94100
O242        O  0.13690393  0.71752680  0.44966319    -0.82000
O243        O  0.30326219  0.91574516  0.29784352    -0.81400
C244        C  0.37869273  0.86385495  0.19074153     0.97900
O245        O  0.39193562  0.89359497  0.21162665    -0.70600
O246        O  0.35999841  0.93152167  0.19302974    -0.74200
Al247      Al  0.37041118  0.91631755  0.24507108     1.49000
C248        C  0.33339830  0.93671998  0.18545120     0.93200
O249        O  0.26298514  0.85239728  0.20120885    -0.80400
O250        O  0.29269975  0.82048385  0.30180425    -0.73900
Al251      Al  0.28576904  0.88353998  0.24935539     1.90100
O252        O  0.27615254  0.80949831  0.21595288    -0.73000
O253        O  0.36267397  0.84607953  0.28417425    -0.72900
O254        O  0.34611527  0.83848521  0.19803995    -0.78500
O255        O  0.38487527  0.90457155  0.29743915    -0.76700
O256        O  0.32513319  0.87735920  0.24805377    -1.12900
O257        O  0.36064471  0.94886675  0.27736348    -0.72000
C258        C  0.33451558  0.94446282  0.30134253     0.98700
C259        C  0.25823717  0.82073057  0.19457687     0.95100
Al260      Al  0.31970127  0.83248674  0.24989888     1.55600
O261        O  0.30542976  0.92371690  0.20966967    -0.76700
C262        C  0.38376523  0.87466432  0.30555358     0.99200
C263        C  0.26505837  0.82365830  0.31056090     0.94100
O264        O  0.25781767  0.84454386  0.28888783    -0.82000
C265        C  0.19340363  0.75281301  0.41066653    -0.05000
C266        C  0.23175254  0.77633906  0.41846396    -0.02100
C267        C  0.25484728  0.80062247  0.38633464     0.02900
C268        C  0.24008621  0.80147752  0.34596951    -0.05000
C269        C  0.20158904  0.77974476  0.33893437    -0.02100
C270        C  0.17833555  0.75548534  0.37106356     0.02900
C271        C  0.24764349  0.77639345  0.45991618     0.37500
C272        C  0.18589954  0.78136172  0.29801260     0.37500
C273        C  0.13913047  0.73236979  0.36235694     0.35900
C274        C  0.29360995  0.82598738  0.39551433     0.35900
N275        N  0.10784985  0.71419898  0.35527431    -0.38900
N276        N  0.32437748  0.84652742  0.40308986    -0.38900
N277        N  0.17341442  0.78282715  0.26546610    -0.38300
N278        N  0.26039860  0.77645736  0.49288008    -0.38300
C279        C  0.18714587  0.74716748  0.09481368    -0.05000
C280        C  0.19056861  0.73322466  0.13462348    -0.02100
C281        C  0.21241137  0.75726346  0.16766119     0.02900
C282        C  0.23156523  0.79587341  0.16131679    -0.05000
C283        C  0.22650297  0.80996728  0.12219241    -0.02100
C284        C  0.20455862  0.78568512  0.08904970     0.02900
C285        C  0.17140646  0.69389509  0.14207189     0.37500
C286        C  0.24472826  0.84936293  0.11506265     0.37500
C287        C  0.20167024  0.80049652  0.04813330     0.35900
C288        C  0.21454562  0.74179105  0.20851026     0.35900
N289        N  0.19955516  0.81170108  0.51485776    -0.38900
N290        N  0.21626501  0.72933362  0.24089965    -0.38900
N291        N  0.25885463  0.88075860  0.10924929    -0.38300
N292        N  0.15657728  0.66263511  0.14874049    -0.38300
C293        C  0.58502276  0.44970153  0.40136939    -0.01400
C294        C  0.59960676  0.44773217  0.36123415    -0.02100
C295        C  0.57580911  0.42415000  0.32880557     0.02900
C296        C  0.53770191  0.40120191  0.33733910    -0.05000
C297        C  0.52400155  0.40056927  0.37897140    -0.02100
C298        C  0.54730043  0.42547600  0.41046402     0.02900
C299        C  0.63892855  0.46999378  0.35317430     0.37500
C300        C  0.48619686  0.37327169  0.38994254     0.37500
C301        C  0.53226177  0.42593133  0.45233642     0.35900
C302        C  0.59022957  0.42473267  0.28624702     0.35900
N303        N  0.51862091  0.42629125  0.98453914    -0.38900
N304        N  0.60159947  0.42521152  0.25220545    -0.38900
N305        N  0.45626143  0.35119010  0.39891133    -0.38300
N306        N  0.67034412  0.48705196  0.34649412    -0.38300
C307        C  0.52979976  0.39560443  0.14786925    -0.05000
C308        C  0.56105973  0.39370056  0.13434093    -0.02100
C309        C  0.58385381  0.41664126  0.10084421     0.02900
C310        C  0.57726695  0.44370948  0.08265723    -0.05000
C311        C  0.54586529  0.44548298  0.09659571    -0.02100
C312        C  0.52150157  0.42046146  0.12715507     0.02900
C313        C  0.57088895  0.36935690  0.15603473     0.37500
C314        C  0.53880409  0.47406953  0.08145980     0.37500
C315        C  0.48736140  0.42031767  0.13619950     0.35900
C316        C  0.61373142  0.41180275  0.08497626     0.35900
N317        N  0.46051451  0.42121232  0.14193561    -0.38900
N318        N  0.63750573  0.40784504  0.07230681    -0.38900
N319        N  0.53272522  0.49667675  0.07008955    -0.38300
N320        N  0.57890760  0.35015559  0.17356583    -0.38300
C321        C  0.36821376  0.02541444  0.40237633    -0.05000
C322        C  0.38302948  0.03626808  0.36088156    -0.02100
C323        C  0.36966315  0.01055059  0.32683722     0.02900
C324        C  0.34204344  0.97330465  0.33446043    -0.05000
C325        C  0.32480925  0.96365714  0.37533156    -0.02100
C326        C  0.33786611  0.98977754  0.40904236     0.02900
C327        C  0.41331384  0.07348874  0.35373005     0.37500
C328        C  0.29483997  0.92656838  0.38369841     0.37500
C329        C  0.32029601  0.97998920  0.45088767     0.35900
C330        C  0.38464835  0.02266440  0.28403365     0.35900
N331        N  0.30603976  0.97231581  0.48413991    -0.38900
N332        N  0.39661792  0.03237088  0.24994418    -0.38900
N333        N  0.27080271  0.89705059  0.39042533    -0.38300
N334        N  0.43747204  0.10316181  0.34815180    -0.38300
C335        C  0.35918227  0.01092872  0.08148968    -0.05000
C336        C  0.34198326  0.01540969  0.11805547    -0.02100
C337        C  0.33008734  0.98915169  0.15132014     0.02900
C338        C  0.33587426  0.95887959  0.14766696    -0.05000
C339        C  0.34806256  0.95198005  0.10840491    -0.02100
C340        C  0.35956667  0.97786039  0.07529746     0.02900
C341        C  0.33873186  0.04798306  0.12259589     0.37500
C342        C  0.34940798  0.91847803  0.10220318     0.37500
C343        C  0.37314941  0.97099028  0.03538835     0.35900
C344        C  0.31414861  0.99453687  0.19007825     0.35900
N345        N  0.38362316  0.96443575  0.50423583    -0.38900
N346        N  0.30117388  0.99865606  0.22092288    -0.38900
N347        N  0.35042484  0.89179654  0.09680850    -0.38300
N348        N  0.33593119  0.07387936  0.12609265    -0.38300
C349        C  0.42127858  0.22963921  0.15973288    -0.05000
C350        C  0.42335109  0.24009082  0.11635971    -0.02100
C351        C  0.42393914  0.21723034  0.08339747     0.02900
C352        C  0.42318827  0.18415046  0.09371359    -0.05000
C353        C  0.42089950  0.17362678  0.13704450    -0.02100
C354        C  0.42011589  0.19635591  0.16996345     0.02900
C355        C  0.42786949  0.27575387  0.10592941     0.37500
C356        C  0.42177969  0.14057479  0.14795775     0.37500
C357        C  0.42003821  0.18624866  0.21443552     0.35900
C358        C  0.42564071  0.22792510  0.03885742     0.35900
N359        N  0.42046862  0.17777525  0.24962838    -0.38900
N360        N  0.42856564  0.23639581  0.50281471    -0.38900
N361        N  0.42266667  0.11435049  0.15686393    -0.38300
N362        N  0.43195999  0.30443837  0.09794673    -0.38300
C363        C  0.43794365  0.19279386  0.41136117    -0.05000
C364        C  0.40802014  0.18004967  0.38239988    -0.02100
C365        C  0.40774576  0.20359949  0.35036925     0.02900
C366        C  0.43814253  0.24005895  0.34592780    -0.05000
C367        C  0.46775471  0.25285977  0.37585568    -0.02100
C368        C  0.46745779  0.22947143  0.40832547     0.02900
C369        C  0.37805070  0.14205738  0.38406274     0.37500
C370        C  0.49876220  0.29034309  0.37430730     0.37500
C371        C  0.49741396  0.24378689  0.43945344     0.35900
C372        C  0.37624920  0.18934268  0.32151643     0.35900
N373        N  0.52128150  0.25526146  0.46419598    -0.38900
N374        N  0.35107658  0.17775695  0.29860758    -0.38900
N375        N  0.52387498  0.31998187  0.37331348    -0.38300
N376        N  0.35404926  0.11182098  0.38491439    -0.38300
C377        C  0.97388843  0.61046497  0.33123597    -0.05000
C378        C  0.96841217  0.62410562  0.37068089    -0.02100
C379        C  0.99563163  0.63654343  0.40335852     0.02900
C380        C  0.02802677  0.63447421  0.39758541    -0.05000
C381        C  0.03468969  0.62329222  0.35748225    -0.02100
C382        C  0.00831941  0.61210692  0.32427865     0.02900
C383        C  0.93415905  0.62378656  0.37899040     0.37500
C384        C  0.06904496  0.62349052  0.35012419     0.37500
C385        C  0.01717248  0.60229657  0.28294308     0.35900
C386        C  0.98934764  0.64973165  0.44383720     0.35900
N387        N  0.02431902  0.59438308  0.25015403    -0.38900
N388        N  0.98535073  0.66205678  0.97538181    -0.38900
N389        N  0.09637020  0.62362161  0.34403914    -0.38300
N390        N  0.90690899  0.62364026  0.38586236    -0.38300
C391        C  0.96151658  0.60434283  0.14742732    -0.05000
C392        C  0.95356412  0.58831700  0.10618336    -0.02100
C393        C  0.98031225  0.60285937  0.07335119     0.02900
C394        C  0.01623473  0.63301008  0.08174947    -0.05000
C395        C  0.02322932  0.65098130  0.12216227    -0.02100
C396        C  0.99582887  0.63682333  0.15472602     0.02900
C397        C  0.91766603  0.55646776  0.09732996     0.37500
C398        C  0.05927702  0.68257647  0.13150109     0.37500
C399        C  0.00384954  0.65449669  0.19654346     0.35900
C400        C  0.97045760  0.58638179  0.03082553     0.35900
N401        N  0.01025782  0.66870285  0.22985399    -0.38900
N402        N  0.96241189  0.57305310  0.99705799    -0.38900
N403        N  0.08804178  0.70774314  0.13897631    -0.38300
N404        N  0.88922020  0.53100570  0.08975493    -0.38300
C405        C  0.79464877  0.55807595  0.16206794    -0.05000
C406        C  0.75545621  0.53605051  0.16538995    -0.02100
C407        C  0.73244601  0.53466829  0.13149961     0.02900
C408        C  0.74747528  0.55727549  0.09510347    -0.05000
C409        C  0.78612131  0.58088036  0.09251354    -0.02100
C410        C  0.80967540  0.58078214  0.12519663     0.02900
C411        C  0.73796931  0.51461535  0.20374656     0.37500
C412        C  0.80184626  0.60367766  0.05476829     0.37500
C413        C  0.84938104  0.60283268  0.11933946     0.35900
C414        C  0.69305673  0.50887469  0.13403438     0.35900
N415        N  0.88106052  0.62031650  0.11453633    -0.38900
N416        N  0.66194303  0.48744081  0.13712228    -0.38900
N417        N  0.81435012  0.62170011  0.02452380    -0.38300
N418        N  0.72379141  0.49753418  0.23418925    -0.38300
C419        C  0.80350987  0.55875496  0.34649807    -0.05000
C420        C  0.77753066  0.56961116  0.33618733    -0.02100
C421        C  0.75189688  0.56727573  0.36731155     0.02900
C422        C  0.75367930  0.55647187  0.40961240    -0.05000
C423        C  0.78084001  0.54738826  0.42054322    -0.02100
C424        C  0.80537287  0.54805576  0.38893594     0.02900
C425        C  0.77583191  0.58135469  0.29293985     0.37500
C426        C  0.78270223  0.53616291  0.46404977     0.37500
C427        C  0.83242456  0.53751510  0.39999404     0.35900
C428        C  0.72120538  0.57189517  0.35457913     0.35900
N429        N  0.85397742  0.52907587  0.40877826    -0.38900
N430        N  0.69591383  0.57401056  0.34381593    -0.38900
N431        N  0.78570747  0.52964144  0.99925808    -0.38300
N432        N  0.77461922  0.59110305  0.25859246    -0.38300
C433        C  0.57560990  0.11239742  0.34881929    -0.05000
C434        C  0.56211969  0.13726186  0.34554600    -0.02100
C435        C  0.54109308  0.14014102  0.37919278     0.02900
C436        C  0.53250128  0.11752367  0.41563333    -0.05000
C437        C  0.54657285  0.09346953  0.41952599    -0.02100
C438        C  0.56808685  0.09094997  0.38642889     0.02900
C439        C  0.56791061  0.15850326  0.30668450     0.37500
C440        C  0.53922412  0.07147209  0.45809476     0.37500
C441        C  0.58250414  0.06628264  0.39170863     0.35900
C442        C  0.52710857  0.16534954  0.37547543     0.35900
N443        N  0.59350302  0.04622393  0.39634378    -0.38900
N444        N  0.51620801  0.18563864  0.37219518    -0.38900
N445        N  0.53343511  0.05398422  0.48880579    -0.38300
N446        N  0.57240459  0.17536311  0.27569250    -0.38300
C447        C  0.57342120  0.11917015  0.16500403    -0.05000
C448        C  0.53426293  0.09758488  0.16897538    -0.02100
C449        C  0.51096653  0.09711126  0.13585990     0.02900
C450        C  0.52604864  0.12008554  0.09976785    -0.05000
C451        C  0.56464779  0.14334603  0.09676619    -0.02100
C452        C  0.58826534  0.14242239  0.12859567     0.02900
C453        C  0.51738101  0.07624886  0.20749564     0.37500
C454        C  0.58019791  0.16691806  0.05950528     0.37500
C455        C  0.62780495  0.16373718  0.12166461     0.35900
C456        C  0.47129721  0.07249153  0.13893432     0.35900
N457        N  0.65917830  0.18056859  0.11477303    -0.38900
N458        N  0.43980333  0.05239692  0.14187746    -0.38900
N459        N  0.59393594  0.18499405  0.52929188    -0.38300
N460        N  0.50377412  0.05929684  0.23819444    -0.38300
C461        C  0.79672588  0.23681486  0.40109493    -0.05000
C462        C  0.79218244  0.20112907  0.39684723    -0.02100
C463        C  0.76854121  0.17668809  0.36474053     0.02900
C464        C  0.74746447  0.18680050  0.33865999    -0.05000
C465        C  0.75482331  0.22345317  0.34014075    -0.02100
C466        C  0.78041964  0.24861457  0.36972857     0.02900
C467        C  0.81112427  0.18896175  0.42551831     0.37500
C468        C  0.73678003  0.23604142  0.31050176     0.37500
C469        C  0.79057005  0.28703590  0.36640370     0.35900
C470        C  0.76576592  0.14111456  0.35903291     0.35900
N471        N  0.79831093  0.31746771  0.36285016    -0.38900
N472        N  0.76393028  0.11293271  0.35415565    -0.38900
N473        N  0.72246434  0.24652963  0.28747339    -0.38300
N474        N  0.82625460  0.17906538  0.44813031    -0.38300
C475        C  0.78993871  0.23251389  0.09337100    -0.05000
C476        C  0.79109578  0.20038230  0.10385248    -0.02100
C477        C  0.76816998  0.17644882  0.13682728     0.02900
C478        C  0.74380527  0.18444527  0.16026569    -0.05000
C479        C  0.74432552  0.21785977  0.15077818    -0.02100
C480        C  0.76645291  0.24099598  0.11737612     0.02900
C481        C  0.81497180  0.19107992  0.07973324     0.37500
C482        C  0.72190291  0.22937586  0.17459008     0.37500
C483        C  0.76448046  0.27388590  0.10848475     0.35900
C484        C  0.77061054  0.14405643  0.14678772     0.35900
N485        N  0.76108875  0.29920682  0.10282786    -0.38900
N486        N  0.77275571  0.11830919  0.15465288    -0.38900
N487        N  0.70412228  0.23905225  0.19269321    -0.38300
N488        N  0.83403248  0.18363724  0.06057298    -0.38300
C489        C  0.85899775  0.44760474  0.33872981    -0.05000
C490        C  0.82811331  0.43158254  0.36680453    -0.02100
C491        C  0.82465956  0.40560216  0.39783858     0.02900
C492        C  0.85214539  0.39561361  0.40120399    -0.05000
C493        C  0.87947940  0.40735493  0.36900623    -0.02100
C494        C  0.88472028  0.43516890  0.34012614     0.02900
C495        C  0.80033117  0.44251820  0.36506494     0.37500
C496        C  0.89836741  0.38692767  0.36140412     0.37500
C497        C  0.91620358  0.44991799  0.31119105     0.35900
C498        C  0.79176269  0.38785543  0.42439140     0.35900
N499        N  0.94144271  0.46162318  0.28837895    -0.38900
N500        N  0.76509453  0.37317930  0.44484940    -0.38900
N501        N  0.91207607  0.36959142  0.35371733    -0.38300
N502        N  0.77793126  0.45092028  0.36390184    -0.38300
C503        C  0.83597748  0.39317315  0.09084647    -0.05000
C504        C  0.84476507  0.38761237  0.13274337    -0.02100
C505        C  0.84674259  0.41102791  0.16638016     0.02900
C506        C  0.83917641  0.43971124  0.15851847    -0.05000
C507        C  0.82585393  0.44217039  0.11775413    -0.02100
C508        C  0.82589182  0.42007614  0.08352391     0.02900
C509        C  0.85357052  0.35886246  0.14076932     0.37500
C510        C  0.81299008  0.46797498  0.11059921     0.37500
C511        C  0.81717863  0.42645458  0.04062390     0.35900
C512        C  0.85545955  0.40467394  0.20934879     0.35900
N513        N  0.81179787  0.43360400  0.50723891    -0.38900
N514        N  0.86190209  0.39866581  0.24345490    -0.38900
N515        N  0.80246541  0.48835191  0.10500365    -0.38300
N516        N  0.86050254  0.33587674  0.14696488    -0.38300
C517        C  0.64197841  0.01223040  0.34175296    -0.05000
C518        C  0.62046306  0.97411526  0.33235329    -0.02100
C519        C  0.60889652  0.94789747  0.36560415     0.02900
C520        C  0.61815346  0.95943686  0.40856601    -0.05000
C521        C  0.64267271  0.99702617  0.41750417    -0.02100
C522        C  0.65426263  0.02345487  0.38435943     0.02900
C523        C  0.60873762  0.96171257  0.28861964     0.37500
C524        C  0.65608897  0.00843909  0.46094350     0.37500
C525        C  0.67515739  0.06224863  0.39528988     0.35900
C526        C  0.58602447  0.90910072  0.35566538     0.35900
N527        N  0.69093724  0.09306084  0.40481165    -0.38900
N528        N  0.56815603  0.87818080  0.34729942    -0.38900
N529        N  0.66744184  0.01758811  0.49538525    -0.38300
N530        N  0.59888046  0.95158473  0.25394059    -0.38300
C531        C  0.63755475  0.01850551  0.15340937    -0.05000
C532        C  0.62087011  0.02309552  0.11646618    -0.02100
C533        C  0.60964286  0.99747490  0.08296734     0.02900
C534        C  0.61380089  0.96626873  0.08673515    -0.05000
C535        C  0.63464878  0.96405988  0.12086252    -0.02100
C536        C  0.64706680  0.99060993  0.15410556     0.02900
C537        C  0.61447617  0.05387711  0.11291665     0.37500
C538        C  0.64145953  0.93356021  0.12305158     0.37500
C539        C  0.66781802  0.98797668  0.18976584     0.35900
C540        C  0.59326500  0.00323509  0.04477170     0.35900
N541        N  0.68456510  0.98595026  0.21808151    -0.38900
N542        N  0.58059141  0.00848749  0.01451242    -0.38900
N543        N  0.64706951  0.90931855  0.12481798    -0.38300
N544        N  0.60892010  0.07805501  0.10966007    -0.38300
C545        C  0.40816083  0.87312981  0.33954135    -0.05000
C546        C  0.39770638  0.83985882  0.36168873    -0.02100
C547        C  0.42104161  0.83828110  0.39326006     0.02900
C548        C  0.45527102  0.87010128  0.40384954    -0.05000
C549        C  0.46637524  0.90299412  0.38001931    -0.02100
C550        C  0.44278832  0.90458103  0.34892636     0.02900
C551        C  0.36232959  0.80696067  0.35315304     0.37500
C552        C  0.50258552  0.93559352  0.38587452     0.37500
C553        C  0.45517229  0.93895542  0.32599355     0.35900
C554        C  0.40953753  0.80310297  0.41367194     0.35900
N555        N  0.46528097  0.96648523  0.30810940    -0.38900
N556        N  0.40024330  0.77485465  0.42937274    -0.38900
N557        N  0.53261819  0.95905517  0.88700899    -0.38300
N558        N  0.33420552  0.78058928  0.34663759    -0.38300
C559        C  0.40219568  0.85912089  0.15792053    -0.05000
C560        C  0.38653111  0.83825999  0.11991531    -0.02100
C561        C  0.40963089  0.83740039  0.08729704     0.02900
C562        C  0.44833227  0.85672748  0.09252320    -0.05000
C563        C  0.46385167  0.87507698  0.13152108    -0.02100
C564        C  0.44101798  0.87628102  0.16408845     0.02900
C565        C  0.34680058  0.81852901  0.11337580     0.37500
C566        C  0.50340563  0.89216700  0.13858798     0.37500
C567        C  0.45775962  0.89425948  0.20449571     0.35900
C568        C  0.39359226  0.81727794  0.04780599     0.35900
N569        N  0.47137608  0.90855961  0.23660395    -0.38900
N570        N  0.38062822  0.80113361  0.01639882    -0.38900
N571        N  0.53482023  0.90556853  0.14489608    -0.38300
N572        N  0.31511978  0.80286968  0.10805587    -0.38300
C573        C  0.14112517  0.53581693  0.34694892    -0.05000
C574        C  0.15824937  0.57402115  0.33911311    -0.02100
C575        C  0.15967689  0.59803312  0.37190463     0.02900
C576        C  0.14281184  0.58361170  0.41211073    -0.05000
C577        C  0.12917467  0.54584315  0.42098434    -0.02100
C578        C  0.12892900  0.52226375  0.38866044     0.02900
C579        C  0.17229658  0.58832565  0.29662408     0.37500
C580        C  0.11497860  0.53086611  0.46325769     0.37500
C581        C  0.11610757  0.48386655  0.39821583     0.35900
C582        C  0.17659376  0.63712696  0.36321241     0.35900
N583        N  0.10613483  0.45331564  0.40565559    -0.38900
N584        N  0.19014530  0.66831307  0.35629760    -0.38900
N585        N  0.10298338  0.51830172  0.99724287    -0.38300
N586        N  0.18347083  0.59965827  0.26269362    -0.38300
C587        C  0.12921767  0.58341897  0.09472384    -0.05000
C588        C  0.15441104  0.57031350  0.09262811    -0.02100
C589        C  0.15659111  0.54925319  0.12659489     0.02900
C590        C  0.13356605  0.54106961  0.16323639    -0.05000
C591        C  0.11120246  0.55765343  0.16683733    -0.02100
C592        C  0.10790959  0.57717967  0.13220254     0.02900
C593        C  0.17692086  0.57680862  0.05454383     0.37500
C594        C  0.09199469  0.55589935  0.20651073     0.37500
C595        C  0.08292619  0.59160212  0.13600027     0.35900
C596        C  0.18274936  0.53630672  0.12324131     0.35900
N597        N  0.06301365  0.60298552  0.13952231    -0.38900
N598        N  0.20391667  0.52637971  0.12044058    -0.38900
N599        N  0.07671459  0.55465478  0.23803837    -0.38300
N600        N  0.19482325  0.58192745  0.02415906    -0.38300
C601        C  0.96457905  0.35677748  0.41778819    -0.05000
C602        C  0.97494618  0.33295914  0.39777973    -0.02100
C603        C  0.00198263  0.34611145  0.36469329     0.02900
C604        C  0.01913495  0.38326027  0.35128742    -0.05000
C605        C  0.00970334  0.40733237  0.37242933    -0.02100
C606        C  0.98297469  0.39440614  0.40516271     0.02900
C607        C  0.95837508  0.29499017  0.41152601     0.37500
C608        C  0.02664984  0.44595137  0.36057119     0.37500
C609        C  0.97336183  0.42043912  0.42346112     0.35900
C610        C  0.01080237  0.32085820  0.34318932     0.35900
N611        N  0.96639121  0.44191543  0.43699379    -0.38900
N612        N  0.01783457  0.30070431  0.32598433    -0.38900
N613        N  0.03854229  0.47672526  0.35240053    -0.38300
N614        N  0.94524470  0.26469666  0.42254721    -0.38300
C615        C  0.01286295  0.38360591  0.16136898    -0.05000
C616        C  0.01587777  0.40502598  0.12492076    -0.02100
C617        C  0.98811204  0.39115247  0.09346626     0.02900
C618        C  0.95658423  0.35586876  0.09794827    -0.05000
C619        C  0.95404909  0.33355597  0.13297177    -0.02100
C620        C  0.98186066  0.34754104  0.16500689     0.02900
C621        C  0.04712715  0.44199743  0.11949524     0.37500
C622        C  0.92220387  0.29681674  0.13678015     0.37500
C623        C  0.97699322  0.32578145  0.20307362     0.35900
C624        C  0.99263235  0.41356435  0.05600074     0.35900
N625        N  0.97292446  0.30854663  0.23361765    -0.38900
N626        N  0.99714201  0.43213620  0.02663418    -0.38900
N627        N  0.89682679  0.26744393  0.13957649    -0.38300
N628        N  0.07128383  0.47175042  0.11450524    -0.38300
C629        C  0.35275231  0.37404993  0.41766890    -0.05000
C630        C  0.38991849  0.39577512  0.40354301    -0.02100
C631        C  0.40265294  0.38495726  0.36776997     0.02900
C632        C  0.38024320  0.35004727  0.34829752    -0.05000
C633        C  0.34385951  0.32718635  0.36389136    -0.02100
C634        C  0.32992496  0.33945356  0.39778746     0.02900
C635        C  0.41577146  0.43036587  0.42445041     0.37500
C636        C  0.31997128  0.29189526  0.34359937     0.37500
C637        C  0.29247925  0.31583879  0.41304767     0.35900
C638        C  0.43896737  0.41118815  0.35088808     0.35900
N639        N  0.26262265  0.29699352  0.42533352    -0.38900
N640        N  0.46763486  0.43345936  0.33831110    -0.38900
N641        N  0.30083525  0.26375600  0.32735809    -0.38300
N642        N  0.43727578  0.45781392  0.44041834    -0.38300
C643        C  0.34026508  0.37497232  0.10523582    -0.05000
C644        C  0.35543448  0.39479751  0.14377583    -0.02100
C645        C  0.36952195  0.38114359  0.17500528     0.02900
C646        C  0.36855530  0.34747515  0.16819422    -0.05000
C647        C  0.34966128  0.32554421  0.13234802    -0.02100
C648        C  0.33577832  0.33936750  0.10058198     0.02900
C649        C  0.35735983  0.42977133  0.15135499     0.37500
C650        C  0.34610599  0.28962332  0.12719510     0.37500
C651        C  0.31943806  0.31798064  0.06190334     0.35900
C652        C  0.38561206  0.40226797  0.21405821     0.35900
N653        N  0.30427261  0.30029673  0.53220207    -0.38900
N654        N  0.39829508  0.41938417  0.24498616    -0.38900
N655        N  0.34298541  0.26080736  0.12329130    -0.38300
N656        N  0.35929260  0.45775599  0.15799334    -0.38300
C657        C  0.23229267  0.42257751  0.40335558    -0.05000
C658        C  0.24762087  0.44634332  0.36767135    -0.02100
C659        C  0.22488248  0.44548029  0.33398006     0.02900
C660        C  0.18610204  0.42261381  0.33652089    -0.05000
C661        C  0.17063678  0.39774607  0.37116629    -0.02100
C662        C  0.19374971  0.39712935  0.40397177     0.02900
C663        C  0.28689022  0.47261042  0.36539824     0.37500
C664        C  0.13085935  0.37439751  0.37460747     0.37500
C665        C  0.17741116  0.37163502  0.43944413     0.35900
C666        C  0.24175010  0.46826016  0.29631068     0.35900
N667        N  0.16435288  0.35114996  0.46760396    -0.38900
N668        N  0.25526485  0.48635044  0.26634760    -0.38900
N669        N  0.09911878  0.35584303  0.37766704    -0.38300
N670        N  0.31791956  0.49445898  0.36286075    -0.38300
C671        C  0.21934136  0.41363064  0.08899267    -0.05000
C672        C  0.21852385  0.39874452  0.12996171    -0.02100
C673        C  0.19424973  0.39814205  0.16202063     0.02900
C674        C  0.17033018  0.41178742  0.15314730    -0.05000
C675        C  0.16898665  0.42373617  0.11134511    -0.02100
C676        C  0.19339969  0.42476763  0.07940411     0.02900
C677        C  0.24394450  0.38595150  0.14010418     0.37500
C678        C  0.14324943  0.43610137  0.10138895     0.37500
C679        C  0.19194876  0.43761022  0.03660705     0.35900
C680        C  0.19480301  0.38486003  0.20479795     0.35900
N681        N  0.18932861  0.44542276  0.50180548    -0.38900
N682        N  0.19503721  0.37429567  0.23899231    -0.38900
N683        N  0.12286338  0.44599841  0.09262842    -0.38300
N684        N  0.26401650  0.37551624  0.14841287    -0.38300
C685        C  0.60805449  0.64170345  0.34496719    -0.05000
C686        C  0.64389564  0.64674036  0.34107211    -0.02100
C687        C  0.65933682  0.63648310  0.37515830     0.02900
C688        C  0.63802964  0.61932119  0.41232956    -0.05000
C689        C  0.60460792  0.61992568  0.41831086    -0.02100
C690        C  0.58970202  0.63075904  0.38467731     0.02900
C691        C  0.66452072  0.66201058  0.30176215     0.37500
C692        C  0.58556459  0.61010633  0.45939359     0.37500
C693        C  0.55530891  0.63069616  0.39096156     0.35900
C694        C  0.69728848  0.64483712  0.37231057     0.35900
N695        N  0.52814043  0.63104283  0.39632469    -0.38900
N696        N  0.72796653  0.65254468  0.37021197    -0.38900
N697        N  0.57033704  0.60235942  0.49208225    -0.38300
N698        N  0.68087390  0.67437080  0.27034208    -0.38300
C699        C  0.60183304  0.62721139  0.15962827    -0.05000
C700        C  0.61666957  0.64813278  0.12190091    -0.02100
C701        C  0.63104248  0.63542104  0.08912929     0.02900
C702        C  0.62983185  0.60134486  0.09366914    -0.05000
C703        C  0.61681132  0.58164462  0.13245714    -0.02100
C704        C  0.60354350  0.59481982  0.16549920     0.02900
C705        C  0.61518785  0.68151329  0.11567598     0.37500
C706        C  0.61668147  0.54744482  0.13856545     0.37500
C707        C  0.59183756  0.57501231  0.20590412     0.35900
C708        C  0.64512049  0.65637240  0.04984358     0.35900
N709        N  0.58274010  0.55928973  0.23813887    -0.38900
N710        N  0.65849275  0.67448609  0.51946417    -0.38900
N711        N  0.61602504  0.51996037  0.14407520    -0.38300
N712        N  0.61385446  0.70805039  0.11045938    -0.38300
C713        C  0.39145209  0.53810231  0.09311582    -0.05000
C714        C  0.42971320  0.56242351  0.08539055    -0.02100
C715        C  0.45314406  0.58413932  0.11895104     0.02900
C716        C  0.43888476  0.58140276  0.16053042    -0.05000
C717        C  0.40049599  0.55974062  0.16771845    -0.02100
C718        C  0.37662782  0.53866165  0.13386393     0.02900
C719        C  0.44534356  0.56538395  0.04291406     0.37500
C720        C  0.38575562  0.55857041  0.21023776     0.37500
C721        C  0.33719995  0.51634732  0.14177579     0.35900
C722        C  0.49214933  0.60929693  0.11084119     0.35900
N723        N  0.30574496  0.49848113  0.14801555    -0.38900
N724        N  0.52317085  0.62958708  0.10441874    -0.38900
N725        N  0.37405285  0.55765046  0.24419517    -0.38300
N726        N  0.45815208  0.56782515  0.00926348    -0.38300
C727        C  0.39388213  0.52660548  0.40959403    -0.05000
C728        C  0.40051943  0.51169273  0.37210027    -0.02100
C729        C  0.42493512  0.53506771  0.34031469     0.02900
C730        C  0.44154811  0.57362007  0.34447584    -0.05000
C731        C  0.43247522  0.58860201  0.37989307    -0.02100
C732        C  0.40895444  0.56523027  0.41257363     0.02900
C733        C  0.37950171  0.47236322  0.36401114     0.37500
C734        C  0.44842530  0.62816777  0.38355113     0.37500
C735        C  0.40096158  0.58122078  0.44947450     0.35900
C736        C  0.43204033  0.51928120  0.30247105     0.35900
N737        N  0.39526783  0.59333455  0.97929329    -0.38900
N738        N  0.43775474  0.50674935  0.27232274    -0.38900
N739        N  0.46112457  0.65971736  0.38656251    -0.38300
N740        N  0.36191698  0.44124024  0.35640817    -0.38300
C741        C  0.54357529  0.74203574  0.15795447    -0.05000
C742        C  0.51028085  0.73816413  0.14133397    -0.02100
C743        C  0.51110421  0.76321215  0.11074303     0.02900
C744        C  0.54509548  0.79051511  0.09272004    -0.05000
C745        C  0.57838930  0.79364290  0.10825354    -0.02100
C746        C  0.57767672  0.77060602  0.14175776     0.02900
C747        C  0.47459262  0.70768411  0.15439813     0.37500
C748        C  0.61359162  0.81967478  0.08903309     0.37500
C749        C  0.61232768  0.77743607  0.16039041     0.35900
C750        C  0.47646796  0.76113061  0.09925549     0.35900
N751        N  0.63999691  0.78310559  0.17537664    -0.38900
N752        N  0.44857449  0.75906302  0.09078694    -0.38900
N753        N  0.64171502  0.84018067  0.07358334    -0.38300
N754        N  0.44593462  0.68350598  0.16427612    -0.38300
C755        C  0.54667516  0.74564993  0.33954608    -0.05000
C756        C  0.56990903  0.75423352  0.37550498    -0.02100
C757        C  0.56917059  0.77708728  0.40833536     0.02900
C758        C  0.54582191  0.79241327  0.40466805    -0.05000
C759        C  0.52383637  0.78492813  0.36718600    -0.02100
C760        C  0.52417694  0.76151097  0.33505127     0.02900
C761        C  0.59346040  0.73828182  0.37955645     0.37500
C762        C  0.50088623  0.80136454  0.36086334     0.37500
C763        C  0.50135885  0.75386573  0.29696689     0.35900
C764        C  0.59085027  0.78272433  0.44687651     0.35900
N765        N  0.48313691  0.74787760  0.26672596    -0.38900
N766        N  0.61005155  0.78837715  0.97642463    -0.38900
N767        N  0.48264460  0.81442677  0.35525509    -0.38300
N768        N  0.61239845  0.72574189  0.38281905    -0.38300
O769        O  0.59378245  0.67735491  0.79778186    -0.81400
C770        C  0.46422966  0.60175329  0.69603044     0.97900
O771        O  0.47940141  0.58689245  0.71641232    -0.70600
O772        O  0.54912150  0.61222138  0.70055065    -0.74200
Al773      Al  0.52306331  0.60671612  0.75171258     1.49000
C774        C  0.58162819  0.63652942  0.69149908     0.93200
O775        O  0.56721400  0.70863842  0.69613472    -0.80400
O776        O  0.51219628  0.68896868  0.80474843    -0.73900
Al777      Al  0.57797752  0.69088776  0.74730725     1.90100
O778        O  0.51573944  0.70407215  0.71903979    -0.73000
O779        O  0.46261699  0.62003530  0.79067565    -0.72900
O780        O  0.47136256  0.63393407  0.70443919    -0.78500
O781        O  0.49560675  0.59409731  0.80304477    -0.76700
O782        O  0.53166150  0.65272370  0.75123868    -1.12900
O783        O  0.56484779  0.61744225  0.78720994    -0.72000
C784        C  0.58823513  0.64584959  0.80743029     0.98700
C785        C  0.54217397  0.71683689  0.69255616     0.95100
Al786      Al  0.49384370  0.66102360  0.75452565     1.55600
O787        O  0.59697144  0.66713009  0.71076920    -0.76700
C788        C  0.46806465  0.59742649  0.81116942     0.99200
C789        C  0.54324794  0.71778063  0.80792372     0.94100
O790        O  0.56973357  0.72351747  0.78338859    -0.82000
O791        O  0.30602127  0.38216353  0.95291582    -0.81400
C792        C  0.36845146  0.50966231  0.56064181     0.97900
O793        O  0.38368846  0.49588175  0.53887191    -0.70600
O794        O  0.35680348  0.42738449  0.56214123    -0.74200
Al795      Al  0.36545269  0.45060701  0.00883334     1.49000
C796        C  0.33371567  0.39379760  0.56861317     0.93200
O797        O  0.25588842  0.39531090  0.54859600    -0.80400
O798        O  0.27988615  0.45821070  0.95265924    -0.73900
Al799      Al  0.28322244  0.39209031  0.50155114     1.90100
O800        O  0.26531427  0.45110688  0.53878150    -0.73000
O801        O  0.34928204  0.50673805  0.96608384    -0.72900
O802        O  0.33476815  0.49883363  0.55481010    -0.78500
O803        O  0.37749078  0.47511346  0.95527973    -0.76700
O804        O  0.31850856  0.43924246  0.00452203    -1.12900
O805        O  0.36091435  0.40842649  0.98079575    -0.72000
C806        C  0.33875138  0.38818138  0.95239489     0.98700
C807        C  0.24849989  0.42023211  0.55726491     0.95100
Al808      Al  0.30817128  0.47548950  0.00312718     1.55600
O809        O  0.30663344  0.37598510  0.54317308    -0.76700
C810        C  0.37214359  0.50119251  0.94524752     0.99200
C811        C  0.25631861  0.42629977  0.94050963     0.94100
O812        O  0.25305659  0.39844562  0.95984132    -0.82000
O813        O  0.06813743  0.38743598  0.80573774    -0.81400
C814        C  0.12947074  0.51286987  0.69604758     0.97900
O815        O  0.10345390  0.50138278  0.72258852    -0.70600
O816        O  0.05363218  0.43388767  0.70453301    -0.74200
Al817      Al  0.07727251  0.45803527  0.75519921     1.49000
C818        C  0.04060220  0.40021710  0.69612682     0.93200
O819        O  0.11899656  0.39612758  0.69998912    -0.80400
O820        O  0.17098276  0.45939220  0.79445047    -0.73900
Al821      Al  0.09448395  0.39506104  0.75233753     1.90100
O822        O  0.16969886  0.44977163  0.70779051    -0.73000
O823        O  0.15628689  0.51229082  0.78531263    -0.72900
O824        O  0.15090102  0.50000972  0.69719719    -0.78500
O825        O  0.09846284  0.48341275  0.80676940    -0.76700
O826        O  0.11006094  0.44326121  0.75106776    -1.12900
O827        O  0.04163317  0.41861846  0.78840292    -0.72000
C828        C  0.04428057  0.39667072  0.81319747     0.98700
C829        C  0.15154624  0.41931012  0.68874928     0.95100
Al830      Al  0.15789299  0.47725547  0.74651984     1.55600
O831        O  0.05087204  0.38110827  0.71728823    -0.76700
C832        C  0.13155926  0.50875814  0.81143880     0.99200
C833        C  0.16227887  0.42699848  0.80428328     0.94100
O834        O  0.13489988  0.39970288  0.78678462    -0.82000
O835        O  0.59840999  0.90437783  0.94978202    -0.81400
C836        C  0.47350259  0.86047226  0.55701383     0.97900
O837        O  0.48972637  0.88962258  0.53516604    -0.70600
O838        O  0.55931721  0.92650720  0.55269686    -0.74200
Al839      Al  0.53334073  0.90969088  0.00118376     1.49000
C840        C  0.59250358  0.93542654  0.55776518     0.93200
O841        O  0.57230359  0.84723018  0.55210618    -0.80400
O842        O  0.51349326  0.81375068  0.94634365    -0.73900
Al843      Al  0.58326865  0.87572696  0.50084249     1.90100
O844        O  0.51766258  0.80279399  0.53218604    -0.73000
O845        O  0.46951051  0.83977784  0.96129080    -0.72900
O846        O  0.47805344  0.83370299  0.54885006    -0.78500
O847        O  0.50762211  0.89781083  0.94946740    -0.76700
O848        O  0.53816883  0.87028410  0.99977814    -1.12900
O849        O  0.57682831  0.94049998  0.96784074    -0.72000
C850        C  0.59704380  0.93340265  0.94424914     0.98700
C851        C  0.54513159  0.81504523  0.55726660     0.95100
Al852      Al  0.49798549  0.82577307  0.99725932     1.55600
O853        O  0.60639606  0.91957331  0.53668055    -0.76700
C854        C  0.47865080  0.86857899  0.93970475     0.99200
C855        C  0.54369654  0.81477158  0.94015999     0.94100
O856        O  0.57096983  0.83377842  0.96459386    -0.82000
O857        O  0.90877224  0.31067014  0.95361488    -0.81400
C858        C  0.84157837  0.37356711  0.55543755     0.97900
O859        O  0.87053732  0.39015141  0.53347846    -0.70600
O860        O  0.91354045  0.36502873  0.55955415    -0.74200
Al861      Al  0.89858468  0.37151779  0.00524458     1.49000
C862        C  0.92626448  0.34386411  0.56592488     0.93200
O863        O  0.84494153  0.26491888  0.55061260    -0.80400
O864        O  0.80835305  0.28525140  0.94844302    -0.73900
Al865      Al  0.87584868  0.28974334  0.50219969     1.90100
O866        O  0.79748623  0.27120890  0.53441780    -0.73000
O867        O  0.82654081  0.35326919  0.95991020    -0.72900
O868        O  0.81898308  0.34012974  0.54861095    -0.78500
O869        O  0.88662013  0.38142362  0.95054223    -0.76700
O870        O  0.86359543  0.32447243  0.00200158    -1.12900
O871        O  0.93663207  0.36647276  0.97874340    -0.72000
C872        C  0.93528617  0.34350709  0.95189976     0.98700
C873        C  0.81207406  0.25737710  0.55755473     0.95100
Al874      Al  0.81676464  0.31319617  0.99796355     1.55600
O875        O  0.91614547  0.31533892  0.54292447    -0.76700
C876        C  0.85515112  0.37523063  0.93879758     0.99200
C877        C  0.81653497  0.26119084  0.93892053     0.94100
O878        O  0.83941603  0.25749102  0.96167795    -0.82000
O879        O  0.67886405  0.06755531  0.80155340    -0.81400
C880        C  0.59872072  0.11602598  0.69818671     0.97900
O881        O  0.58644586  0.08633470  0.71881570    -0.70600
O882        O  0.61645022  0.04688676  0.70127078    -0.74200
Al883      Al  0.60821929  0.06446244  0.75284576     1.49000
C884        C  0.64267923  0.04176017  0.69150546     0.93200
O885        O  0.71263225  0.12703593  0.70021392    -0.80400
O886        O  0.68847264  0.16011765  0.80623923    -0.73900
Al887      Al  0.69335546  0.09756679  0.75101314     1.90100
O888        O  0.70247783  0.17075933  0.72033318    -0.73000
O889        O  0.61878160  0.13644896  0.79240735    -0.72900
O890        O  0.63114066  0.14212233  0.70538111    -0.78500
O891        O  0.59428241  0.07766049  0.80481321    -0.76700
O892        O  0.65371810  0.10342859  0.75321251    -1.12900
O893        O  0.61979941  0.03390303  0.78647918    -0.72000
C894        C  0.64753746  0.03948939  0.80826316     0.98700
C895        C  0.71862752  0.15947361  0.69574135     0.95100
Al896      Al  0.65974858  0.14839239  0.75584340     1.55600
O897        O  0.67175401  0.05557360  0.71376476    -0.76700
C898        C  0.59713444  0.10824997  0.81364836     0.99200
C899        C  0.71822047  0.15974545  0.81012017     0.94100
O900        O  0.72438555  0.13868789  0.78709640    -0.82000
O901        O  0.91711787  0.59849107  0.79596435    -0.81400
C902        C  0.84802975  0.46843940  0.69235345     0.97900
O903        O  0.87886509  0.48243204  0.71116981    -0.70600
O904        O  0.92422272  0.55166187  0.69013149    -0.74200
Al905      Al  0.90732401  0.52699103  0.74330886     1.49000
C906        C  0.93486132  0.58512070  0.68329589     0.93200
O907        O  0.85259742  0.57951226  0.70019210    -0.80400
O908        O  0.81844172  0.52166365  0.80498649    -0.73900
Al909      Al  0.88407721  0.58610276  0.74800915     1.90100
O910        O  0.80549341  0.52685643  0.71950190    -0.73000
O911        O  0.83470024  0.47081298  0.78694983    -0.72900
O912        O  0.82564670  0.47918481  0.70116405    -0.78500
O913        O  0.89464566  0.50142688  0.79615278    -0.76700
O914        O  0.87214538  0.53870250  0.74795352    -1.12900
O915        O  0.94370551  0.56802133  0.77453420    -0.72000
C916        C  0.94333568  0.59185858  0.79879691     0.98700
C917        C  0.81902202  0.55493870  0.69577394     0.95100
Al918      Al  0.82514883  0.50289298  0.75281618     1.55600
O919        O  0.92432189  0.60240842  0.70735728    -0.76700
C920        C  0.86317508  0.47518232  0.80612151     0.99200
C921        C  0.82441039  0.55368807  0.81187200     0.94100
O922        O  0.84645230  0.58026818  0.78842964    -0.82000
O923        O  0.38352160  0.07782550  0.94660255    -0.81400
C924        C  0.50295737  0.11847344  0.56393779     0.97900
O925        O  0.48795435  0.09009653  0.54043839    -0.70600
O926        O  0.41722298  0.05068400  0.55027559    -0.74200
Al927      Al  0.44525053  0.07011120  0.00196370     1.49000
C928        C  0.38407368  0.04242253  0.55366934     0.93200
O929        O  0.40227471  0.12949091  0.55193310    -0.80400
O930        O  0.46732993  0.16824719  0.95228011    -0.73900
Al931      Al  0.39588722  0.10392387  0.49941722     1.90100
O932        O  0.45807745  0.17574173  0.53859343    -0.73000
O933        O  0.51142968  0.14296212  0.96994106    -0.72900
O934        O  0.49827013  0.14532125  0.55661796    -0.78500
O935        O  0.47513457  0.08491455  0.95302360    -0.76700
O936        O  0.44000613  0.10944189  0.00196735    -1.12900
O937        O  0.40482080  0.04134709  0.96381364    -0.72000
C938        C  0.38583481  0.04951060  0.93969281     0.98700
C939        C  0.42820730  0.16175448  0.55965265     0.95100
Al940      Al  0.47986927  0.15429187  0.00407375     1.55600
O941        O  0.37132881  0.05881532  0.53192790    -0.76700
C942        C  0.50446450  0.11502530  0.94763249     0.99200
C943        C  0.43756296  0.16772514  0.94464392     0.94100
O944        O  0.40878307  0.14733553  0.96615180    -0.82000
O945        O  0.67862319  0.60218733  0.94876854    -0.81400
C946        C  0.60274027  0.47048959  0.54911360     0.97900
O947        O  0.59010028  0.48429522  0.52340268    -0.70600
O948        O  0.61560784  0.55307119  0.54581231    -0.74200
Al949      Al  0.61143810  0.52856345  0.99277925     1.49000
C950        C  0.63978549  0.58515872  0.55725539     0.93200
O951        O  0.71885796  0.58029330  0.54783427    -0.80400
O952        O  0.70028431  0.51920914  0.95134033    -0.73900
Al953      Al  0.69585174  0.58707328  0.49823915     1.90100
O954        O  0.70698680  0.52378226  0.53834673    -0.73000
O955        O  0.62918870  0.47090929  0.95775335    -0.72900
O956        O  0.63627541  0.47959544  0.54654617    -0.78500
O957        O  0.60364220  0.50363868  0.93981052    -0.76700
O958        O  0.65835719  0.53917390  0.99625110    -1.12900
O959        O  0.61984848  0.57011052  0.96162607    -0.72000
C960        C  0.64630053  0.59626076  0.94248408     0.98700
C961        C  0.72332084  0.55385371  0.55835722     0.95100
Al962      Al  0.66736513  0.50171017  0.99824366     1.55600
O963        O  0.67046485  0.60264800  0.53769206    -0.76700
C964        C  0.60787192  0.47628326  0.93399803     0.99200
C965        C  0.72505442  0.55145664  0.94183439     0.94100
O966        O  0.72682554  0.57933087  0.95983252    -0.82000
O967        O  0.38934584  0.30619060  0.80593246    -0.81400
C968        C  0.50724152  0.37406380  0.68527498     0.97900
O969        O  0.49613236  0.38931818  0.71139179    -0.70600
O970        O  0.42525404  0.36167166  0.69889799    -0.74200
Al971      Al  0.45401226  0.36991021  0.74805059     1.49000
C972        C  0.39129913  0.33837617  0.69594956     0.93200
O973        O  0.40098123  0.26303447  0.70265119    -0.80400
O974        O  0.47005498  0.28921004  0.79642296    -0.73900
Al975      Al  0.39805439  0.28696917  0.75369496     1.90100
O976        O  0.45685717  0.27183433  0.71206918    -0.73000
O977        O  0.51694441  0.35807294  0.77795770    -0.72900
O978        O  0.49916752  0.34119046  0.69128311    -0.78500
O979        O  0.48316801  0.38188792  0.79775078    -0.76700
O980        O  0.44467744  0.32391323  0.74870668    -1.12900
O981        O  0.41450949  0.36291984  0.78412289    -0.72000
C982        C  0.39503648  0.33846923  0.81088360     0.98700
C983        C  0.42610274  0.25593132  0.69325010     0.95100
Al984      Al  0.48246807  0.31566651  0.74472465     1.55600
O985        O  0.37666534  0.30944941  0.71856976    -0.76700
C986        C  0.51120065  0.37863502  0.80261627     0.99200
C987        C  0.43910374  0.26342655  0.80871232     0.94100
O988        O  0.40988660  0.25767223  0.78997964    -0.82000
O989        O  0.06559969  0.66985434  0.95691628    -0.81400
C990        C  0.12526926  0.60383906  0.55807837     0.97900
O991        O  0.09368860  0.59801397  0.54761179    -0.70600
O992        O  0.04500480  0.61659508  0.52720022    -0.74200
Al993      Al  0.08001645  0.61026475  0.99547823     1.49000
C994        C  0.04624723  0.64210146  0.54971373     0.93200
O995        O  0.14353057  0.72467925  0.53733008    -0.80400
O996        O  0.18307659  0.70885533  0.96423921    -0.73900
Al997      Al  0.10576693  0.69340470  0.49737130     1.90100
O998        O  0.17364274  0.69574314  0.55087236    -0.73000
O999        O  0.16016076  0.63927500  0.95072813    -0.72900
O1000       O  0.15368567  0.62703447  0.53792404    -0.78500
O1001       O  0.10571974  0.59183420  0.96333329    -0.76700
O1002       O  0.11660682  0.65709502  0.99774246    -1.12900
O1003       O  0.06212046  0.61701760  0.94271784    -0.72000
C1004       C  0.05349664  0.64103499  0.93423875     0.98700
C1005       C  0.16685351  0.72104487  0.55916193     0.95100
Al1006     Al  0.16353728  0.66709310  0.00063105     1.55600
O1007       O  0.07299246  0.67450215  0.54551940    -0.76700
C1008       C  0.13611314  0.60617310  0.94379732     0.99200
C1009       C  0.16960781  0.72467041  0.94281197     0.94100
O1010       O  0.13685952  0.71735261  0.94925478    -0.82000
O1011       O  0.30242448  0.91560453  0.79793111    -0.81400
C1012       C  0.37932246  0.86499688  0.69126603     0.97900
O1013       O  0.39229051  0.89447441  0.71261678    -0.70600
O1014       O  0.36041715  0.93239776  0.69413747    -0.74200
Al1015     Al  0.37032000  0.91670191  0.74611830     1.49000
C1016       C  0.33377969  0.93743696  0.68614995     0.93200
O1017       O  0.26322749  0.85274429  0.70064379    -0.80400
O1018       O  0.29228075  0.82032682  0.80123455    -0.73900
Al1019     Al  0.28554014  0.88364358  0.74915554     1.90100
O1020       O  0.27665650  0.81002915  0.71531008    -0.73000
O1021       O  0.36239830  0.84615870  0.78458071    -0.72900
O1022       O  0.34677100  0.83942985  0.69824555    -0.78500
O1023       O  0.38431267  0.90448386  0.79855856    -0.76700
O1024       O  0.32505756  0.87764900  0.74829891    -1.12900
O1025       O  0.36009464  0.94878695  0.77851475    -0.72000
C1026       C  0.33362867  0.94432049  0.80188491     0.98700
C1027       C  0.25864400  0.82114411  0.69396765     0.95100
Al1028     Al  0.31980168  0.83283697  0.74977098     1.55600
O1029       O  0.30547374  0.92409101  0.70983683    -0.76700
C1030       C  0.38322111  0.87453996  0.80639066     0.99200
C1031       C  0.26453154  0.82335784  0.80983064     0.94100
O1032       O  0.25732338  0.84432004  0.78825847    -0.82000
C1033       C  0.19313697  0.75230228  0.90986578    -0.05000
C1034       C  0.23137961  0.77626457  0.91775794    -0.02100
C1035       C  0.25432759  0.80062881  0.88562413     0.02900
C1036       C  0.23955222  0.80105140  0.84512105    -0.05000
C1037       C  0.20115581  0.77873639  0.83786575    -0.02100
C1038       C  0.17802356  0.75443506  0.87004394     0.02900
C1039       C  0.24730579  0.77664883  0.95929292     0.37500
C1040       C  0.18548361  0.77982074  0.79671013     0.37500
C1041       C  0.13893008  0.73074308  0.86119408     0.35900
C1042       C  0.29295455  0.82649573  0.89488678     0.35900
N1043       N  0.10773648  0.71214077  0.85394032    -0.38900
N1044       N  0.32361739  0.84744196  0.90244455    -0.38900
N1045       N  0.17297460  0.78081547  0.76398074    -0.38300
N1046       N  0.26010232  0.77695814  0.99231150    -0.38300
C1047       C  0.18718233  0.74703464  0.59484852    -0.05000
C1048       C  0.19086959  0.73329701  0.63466922    -0.02100
C1049       C  0.21291113  0.75752860  0.66745098     0.02900
C1050       C  0.23194520  0.79612043  0.66085166    -0.05000
C1051       C  0.22667803  0.80999597  0.62168845    -0.02100
C1052       C  0.20463713  0.78552138  0.58874806     0.02900
C1053       C  0.17180128  0.69398875  0.64237131     0.37500
C1054       C  0.24471624  0.84935254  0.61434690     0.37500
C1055       C  0.20173508  0.80008602  0.54765627     0.35900
C1056       C  0.21534905  0.74226791  0.70832188     0.35900
N1057       N  0.19948626  0.81233925  0.01550042    -0.38900
N1058       N  0.21732633  0.73000582  0.74074134    -0.38900
N1059       N  0.25865153  0.88071011  0.60835243    -0.38300
N1060       N  0.15703905  0.66274989  0.64919705    -0.38300
C1061       C  0.58464625  0.44838731  0.90160295    -0.01400
C1062       C  0.59943252  0.44574755  0.86189121    -0.02100
C1063       C  0.57569332  0.42220833  0.82937552     0.02900
C1064       C  0.53744719  0.39977454  0.83754006    -0.05000
C1065       C  0.52359552  0.39941912  0.87899864    -0.02100
C1066       C  0.54677513  0.42455515  0.91039142     0.02900
C1067       C  0.63888789  0.46730200  0.85433363     0.37500
C1068       C  0.48579918  0.37206913  0.88993704     0.37500
C1069       C  0.53143173  0.42571003  0.95179911     0.35900
C1070       C  0.59035061  0.42229400  0.78710943     0.35900
N1071       N  0.51969614  0.42588862  0.48547430    -0.38900
N1072       N  0.60188542  0.42234949  0.75328856    -0.38900
N1073       N  0.45589670  0.34987188  0.89886475    -0.38300
N1074       N  0.67040116  0.48376569  0.84809652    -0.38300
C1075       C  0.53006514  0.39590721  0.64789177    -0.05000
C1076       C  0.56088953  0.39350367  0.63363998    -0.02100
C1077       C  0.58376977  0.41660153  0.60025144     0.02900
C1078       C  0.57747833  0.44400435  0.58246294    -0.05000
C1079       C  0.54632990  0.44606355  0.59682052    -0.02100
C1080       C  0.52222434  0.42137982  0.62786717     0.02900
C1081       C  0.57021377  0.36845078  0.65450024     0.37500
C1082       C  0.53912819  0.47445957  0.58132496     0.37500
C1083       C  0.48889816  0.42238947  0.63835153     0.35900
C1084       C  0.61342503  0.41155121  0.58404102     0.35900
N1085       N  0.46275818  0.42424564  0.64551673    -0.38900
N1086       N  0.63704633  0.40743597  0.57116757    -0.38900
N1087       N  0.53287776  0.49683593  0.56950230    -0.38300
N1088       N  0.57780411  0.34864969  0.67134285    -0.38300
C1089       C  0.36677487  0.02530998  0.90260811    -0.05000
C1090       C  0.38158504  0.03617977  0.86111598    -0.02100
C1091       C  0.36829914  0.01042900  0.82712318     0.02900
C1092       C  0.34076671  0.97316159  0.83480264    -0.05000
C1093       C  0.32345420  0.96351573  0.87561052    -0.02100
C1094       C  0.33645802  0.98965401  0.90929834     0.02900
C1095       C  0.41187895  0.07340221  0.85394481     0.37500
C1096       C  0.29353055  0.92640078  0.88394194     0.37500
C1097       C  0.31895706  0.97983969  0.95117812     0.35900
C1098       C  0.38339838  0.02248941  0.78434898     0.35900
N1099       N  0.30479102  0.97216000  0.98448043    -0.38900
N1100       N  0.39549781  0.03215796  0.75030053    -0.38900
N1101       N  0.26952816  0.89685940  0.89063905    -0.38300
N1102       N  0.43606127  0.10306151  0.84833872    -0.38300
C1103       C  0.36038981  0.01140779  0.58186200    -0.05000
C1104       C  0.34355730  0.01641919  0.61844859    -0.02100
C1105       C  0.33142684  0.99031032  0.65188941     0.02900
C1106       C  0.33652094  0.95961692  0.64832614    -0.05000
C1107       C  0.34829091  0.95222232  0.60908127    -0.02100
C1108       C  0.36016114  0.97801952  0.57585452     0.02900
C1109       C  0.34078365  0.04928026  0.62274296     0.37500
C1110       C  0.34863514  0.91818688  0.60300442     0.37500
C1111       C  0.37332934  0.97065912  0.53594549     0.35900
C1112       C  0.31583545  0.99616332  0.69065449     0.35900
N1113       N  0.38380458  0.96513588  0.00371688    -0.38900
N1114       N  0.30313690  0.00067654  0.72149333    -0.38900
N1115       N  0.34870350  0.89099629  0.59777721    -0.38300
N1116       N  0.33830593  0.07537548  0.62603392    -0.38300
C1117       C  0.42084688  0.22925906  0.65904662    -0.05000
C1118       C  0.42297553  0.23952615  0.61560763    -0.02100
C1119       C  0.42423813  0.21682825  0.58292994     0.02900
C1120       C  0.42377483  0.18395706  0.59359960    -0.05000
C1121       C  0.42148122  0.17363849  0.63700521    -0.02100
C1122       C  0.42020758  0.19629609  0.66964850     0.02900
C1123       C  0.42689988  0.27488257  0.60482813     0.37500
C1124       C  0.42305900  0.14103707  0.64832960     0.37500
C1125       C  0.42030517  0.18657355  0.71425839     0.35900
C1126       C  0.42666210  0.22764736  0.53833935     0.35900
N1127       N  0.42091028  0.17852929  0.74960138    -0.38900
N1128       N  0.42684692  0.23649843  0.00335964    -0.38900
N1129       N  0.42452424  0.11521000  0.65769018    -0.38300
N1130       N  0.43048439  0.30330489  0.59648841    -0.38300
C1131       C  0.43689683  0.19230536  0.91097495    -0.05000
C1132       C  0.40695067  0.17953304  0.88204548    -0.02100
C1133       C  0.40675386  0.20300911  0.84986714     0.02900
C1134       C  0.43735882  0.23931715  0.84510867    -0.05000
C1135       C  0.46699632  0.25212596  0.87499052    -0.02100
C1136       C  0.46653813  0.22888487  0.90771771     0.02900
C1137       C  0.37692101  0.14157364  0.88385017     0.37500
C1138       C  0.49821456  0.28947616  0.87313626     0.37500
C1139       C  0.49651791  0.24324301  0.93881478     0.35900
C1140       C  0.37508349  0.18885824  0.82128598     0.35900
N1141       N  0.52044069  0.25477173  0.96348461    -0.38900
N1142       N  0.34973050  0.17735960  0.79866333    -0.38900
N1143       N  0.52350444  0.31899611  0.87189011    -0.38300
N1144       N  0.35288928  0.11135309  0.88476714    -0.38300
C1145       C  0.97402934  0.61078167  0.83113719    -0.05000
C1146       C  0.96884622  0.62496588  0.87034570    -0.02100
C1147       C  0.99598912  0.63719695  0.90310513     0.02900
C1148       C  0.02804609  0.63446833  0.89763006    -0.05000
C1149       C  0.03454451  0.62293535  0.85767095    -0.02100
C1150       C  0.00825335  0.61191524  0.82439728     0.02900
C1151       C  0.93504457  0.62563020  0.87827388     0.37500
C1152       C  0.06873238  0.62275541  0.85047031     0.37500
C1153       C  0.01703552  0.60184714  0.78318362     0.35900
C1154       C  0.98998732  0.65094399  0.94333398     0.35900
N1155       N  0.02413405  0.59374540  0.75048607    -0.38900
N1156       N  0.98447583  0.66039609  0.47608452    -0.38900
N1157       N  0.09596134  0.62266246  0.84451768    -0.38300
N1158       N  0.90818466  0.62632410  0.88484312    -0.38300
C1159       C  0.96102155  0.60424234  0.64723962    -0.05000
C1160       C  0.95292551  0.58829231  0.60596279    -0.02100
C1161       C  0.97987073  0.60234490  0.57328228     0.02900
C1162       C  0.01580861  0.63255965  0.58158451    -0.05000
C1163       C  0.02271231  0.65078913  0.62183186    -0.02100
C1164       C  0.99541558  0.63661075  0.65450265     0.02900
C1165       C  0.91651420  0.55732344  0.59681760     0.37500
C1166       C  0.05852310  0.68283008  0.63085447     0.37500
C1167       C  0.00358798  0.65420328  0.69637276     0.35900
C1168       C  0.97017805  0.58529477  0.53104056     0.35900
N1169       N  0.01010725  0.66830377  0.72974925    -0.38900
N1170       N  0.96228028  0.57146172  0.49752154    -0.38900
N1171       N  0.08705587  0.70842797  0.63804946    -0.38300
N1172       N  0.88755951  0.53273984  0.58894168    -0.38300
C1173       C  0.79463447  0.55791469  0.66220275    -0.05000
C1174       C  0.75545429  0.53546371  0.66506323    -0.02100
C1175       C  0.73259197  0.53417869  0.63107370     0.02900
C1176       C  0.74770646  0.55729472  0.59508524    -0.05000
C1177       C  0.78629531  0.58132248  0.59299058    -0.02100
C1178       C  0.80975033  0.58111717  0.62571296     0.02900
C1179       C  0.73779333  0.51354242  0.70307174     0.37500
C1180       C  0.80208949  0.60477764  0.55574492     0.37500
C1181       C  0.84946496  0.60365687  0.62028841     0.35900
C1182       C  0.69326032  0.50805984  0.63318125     0.35900
N1183       N  0.88115178  0.62153249  0.61582022    -0.38900
N1184       N  0.66220383  0.48636984  0.63602982    -0.38900
N1185       N  0.81463935  0.62339770  0.52594903    -0.38300
N1186       N  0.72346131  0.49611936  0.73325533    -0.38300
C1187       C  0.80320117  0.55905974  0.84648092    -0.05000
C1188       C  0.77627425  0.56858164  0.83586807    -0.02100
C1189       C  0.75055547  0.56598826  0.86703790     0.02900
C1190       C  0.75315441  0.55627473  0.90961599    -0.05000
C1191       C  0.78118667  0.54848874  0.92077806    -0.02100
C1192       C  0.80586677  0.54945473  0.88918000     0.02900
C1193       C  0.77385309  0.57940044  0.79238642     0.37500
C1194       C  0.78373930  0.53811136  0.96447687     0.37500
C1195       C  0.83389010  0.54030324  0.90048874     0.35900
C1196       C  0.71913142  0.56939115  0.85426207     0.35900
N1197       N  0.85624391  0.53299797  0.90944013    -0.38900
N1198       N  0.69332187  0.57063373  0.84362900    -0.38900
N1199       N  0.78407573  0.52709249  0.49871871    -0.38300
N1200       N  0.77203492  0.58849330  0.75788609    -0.38300
C1201       C  0.57474873  0.11138247  0.84901194    -0.05000
C1202       C  0.56205050  0.13693027  0.84616281    -0.02100
C1203       C  0.54091164  0.13981996  0.87970612     0.02900
C1204       C  0.53115848  0.11640024  0.91555340    -0.05000
C1205       C  0.54401467  0.09127323  0.91879125    -0.02100
C1206       C  0.56590735  0.08894420  0.88596960     0.02900
C1207       C  0.56870441  0.15888981  0.80774052     0.37500
C1208       C  0.53490361  0.06781949  0.95633788     0.37500
C1209       C  0.57940433  0.06347996  0.89091830     0.35900
C1210       C  0.52783864  0.16579058  0.87634161     0.35900
N1211       N  0.58974939  0.04285862  0.89526063    -0.38900
N1212       N  0.51763403  0.18665920  0.87335326    -0.38900
N1213       N  0.52759639  0.04907048  0.98616034    -0.38300
N1214       N  0.57384807  0.17628094  0.77706551    -0.38300
C1215       C  0.57426017  0.11949476  0.66535095    -0.05000
C1216       C  0.53510599  0.09816530  0.66935697    -0.02100
C1217       C  0.51192646  0.09761331  0.63608595     0.02900
C1218       C  0.52715975  0.12029774  0.59980714    -0.05000
C1219       C  0.56579638  0.14330242  0.59672614    -0.02100
C1220       C  0.58928809  0.14244903  0.62875993     0.02900
C1221       C  0.51813417  0.07718616  0.70807213     0.37500
C1222       C  0.58149528  0.16652679  0.55923263     0.37500
C1223       C  0.62886457  0.16346883  0.62191497     0.35900
C1224       C  0.47223198  0.07316344  0.63916667     0.35900
N1225       N  0.66028084  0.18002210  0.61519417    -0.38900
N1226       N  0.44071710  0.05318543  0.64212907    -0.38900
N1227       N  0.59249715  0.18565278  0.02974252    -0.38300
N1228       N  0.50447817  0.06052504  0.73892872    -0.38300
C1229       C  0.79732792  0.23669134  0.90127251    -0.05000
C1230       C  0.79254174  0.20090802  0.89729002    -0.02100
C1231       C  0.76835184  0.17624091  0.86573127     0.02900
C1232       C  0.74707177  0.18630881  0.83994457    -0.05000
C1233       C  0.75440883  0.22295851  0.84139309    -0.02100
C1234       C  0.78072255  0.24835538  0.87015749     0.02900
C1235       C  0.81191125  0.18894759  0.92556652     0.37500
C1236       C  0.73544182  0.23526874  0.81278104     0.37500
C1237       C  0.79136347  0.28687560  0.86618651     0.35900
C1238       C  0.76504388  0.14039416  0.86047774     0.35900
N1239       N  0.79955125  0.31739175  0.86211935    -0.38900
N1240       N  0.76274108  0.11196758  0.85600405    -0.38900
N1241       N  0.72030466  0.24549492  0.79068250    -0.38300
N1242       N  0.82741458  0.17923897  0.94783707    -0.38300
C1243       C  0.78989567  0.23284717  0.59395932    -0.05000
C1244       C  0.79122901  0.20084198  0.60461535    -0.02100
C1245       C  0.76882832  0.17725977  0.63813458     0.02900
C1246       C  0.74439744  0.18516929  0.66155516    -0.05000
C1247       C  0.74473384  0.21845966  0.65191914    -0.02100
C1248       C  0.76657342  0.24142926  0.61820226     0.02900
C1249       C  0.81458661  0.19118483  0.57997373     0.37500
C1250       C  0.72245403  0.23000565  0.67597489     0.37500
C1251       C  0.76440302  0.27418397  0.60916046     0.35900
C1252       C  0.77207339  0.14546134  0.64888940     0.35900
N1253       N  0.76088850  0.29941541  0.60335888    -0.38900
N1254       N  0.77494188  0.12025312  0.65748407    -0.38900
N1255       N  0.70480791  0.23969652  0.69435492    -0.38300
N1256       N  0.83315616  0.18341498  0.56029918    -0.38300
C1257       C  0.85959228  0.44808856  0.83915350    -0.05000
C1258       C  0.82885878  0.43207654  0.86742020    -0.02100
C1259       C  0.82530523  0.40575041  0.89798734     0.02900
C1260       C  0.85278334  0.39573050  0.90107893    -0.05000
C1261       C  0.88012394  0.40766634  0.86885708    -0.02100
C1262       C  0.88520983  0.43550333  0.84006797     0.02900
C1263       C  0.80133546  0.44337856  0.86635390     0.37500
C1264       C  0.89916966  0.38741138  0.86111612     0.37500
C1265       C  0.91632712  0.45003910  0.81059952     0.35900
C1266       C  0.79224958  0.38760935  0.92423858     0.35900
N1267       N  0.94124060  0.46154982  0.78731159    -0.38900
N1268       N  0.76544883  0.37257957  0.94442343    -0.38900
N1269       N  0.91302417  0.37023259  0.85329636    -0.38300
N1270       N  0.77916387  0.45209983  0.86573536    -0.38300
C1271       C  0.83615463  0.39329085  0.59150179    -0.05000
C1272       C  0.84470675  0.38755676  0.63345773    -0.02100
C1273       C  0.84632972  0.41074248  0.66720342     0.02900
C1274       C  0.83888838  0.43949876  0.65930903    -0.05000
C1275       C  0.82581539  0.44212341  0.61846530    -0.02100
C1276       C  0.82614249  0.42024206  0.58417077     0.02900
C1277       C  0.85370677  0.35894131  0.64143454     0.37500
C1278       C  0.81267915  0.46771231  0.61139344     0.37500
C1279       C  0.81792053  0.42694521  0.54117084     0.35900
C1280       C  0.85429821  0.40395633  0.71034860     0.35900
N1281       N  0.81058322  0.43291326  0.00683271    -0.38900
N1282       N  0.86001813  0.39756996  0.74462456    -0.38900
N1283       N  0.80183300  0.48784434  0.60593179    -0.38300
N1284       N  0.86085331  0.33610090  0.64759385    -0.38300
C1285       C  0.64201575  0.01218089  0.84209045    -0.05000
C1286       C  0.62108758  0.97405221  0.83261747    -0.02100
C1287       C  0.60937792  0.94783721  0.86589290     0.02900
C1288       C  0.61790620  0.95939251  0.90895682    -0.05000
C1289       C  0.64187794  0.99707357  0.91804010    -0.02100
C1290       C  0.65352061  0.02349635  0.88487904     0.02900
C1291       C  0.61008932  0.96162724  0.78874029     0.37500
C1292       C  0.65481995  0.00857638  0.96160445     0.37500
C1293       C  0.67366824  0.06231078  0.89584986     0.35900
C1294       C  0.58711803  0.90900747  0.85581762     0.35900
N1295       N  0.68889231  0.09313533  0.90531753    -0.38900
N1296       N  0.56975587  0.87806982  0.84732577    -0.38900
N1297       N  0.66585806  0.01781261  0.99613871    -0.38300
N1298       N  0.60081449  0.95148800  0.75392974    -0.38300
C1299       C  0.63858907  0.01925088  0.65309733    -0.05000
C1300       C  0.62200075  0.02387037  0.61607465    -0.02100
C1301       C  0.61095858  0.99832934  0.58247954     0.02900
C1302       C  0.61478452  0.96694009  0.58644507    -0.05000
C1303       C  0.63540312  0.96460313  0.62075301    -0.02100
C1304       C  0.64809882  0.99135644  0.65379305     0.02900
C1305       C  0.61545133  0.05454372  0.61254903     0.37500
C1306       C  0.64149515  0.93367181  0.62350109     0.37500
C1307       C  0.66922110  0.98900325  0.68921633     0.35900
C1308       C  0.59501379  0.00428704  0.54402488     0.35900
N1309       N  0.68634898  0.98729146  0.71730692    -0.38900
N1310       N  0.58270317  0.00968257  0.51353715    -0.38900
N1311       N  0.64644622  0.90903085  0.62583608    -0.38300
N1312       N  0.60970947  0.07859513  0.60925165    -0.38300
C1313       C  0.40748791  0.87275416  0.84035692    -0.05000
C1314       C  0.39693418  0.83934868  0.86227330    -0.02100
C1315       C  0.42034441  0.83749090  0.89354830     0.02900
C1316       C  0.45489669  0.86905694  0.90369801    -0.05000
C1317       C  0.46623485  0.90188508  0.87969434    -0.02100
C1318       C  0.44229983  0.90399545  0.84957553     0.02900
C1319       C  0.36138267  0.80664465  0.85383902     0.37500
C1320       C  0.50317422  0.93370031  0.88402997     0.37500
C1321       C  0.45445177  0.93874487  0.82762306     0.35900
C1322       C  0.40865894  0.80229415  0.91400068     0.35900
N1323       N  0.46433473  0.96662261  0.81065769    -0.38900
N1324       N  0.39922978  0.77403289  0.92974556    -0.38900
N1325       N  0.53140933  0.96163494  0.39012270    -0.38300
N1326       N  0.33313204  0.78040869  0.84738650    -0.38300
C1327       C  0.40304178  0.86076859  0.65822443    -0.05000
C1328       C  0.38733410  0.83915972  0.62066632    -0.02100
C1329       C  0.41039554  0.83827498  0.58802147     0.02900
C1330       C  0.44912176  0.85821410  0.59280114    -0.05000
C1331       C  0.46477623  0.87740251  0.63131950    -0.02100
C1332       C  0.44202821  0.87895657  0.66375324     0.02900
C1333       C  0.34755942  0.81867627  0.61452018     0.37500
C1334       C  0.50438223  0.89477588  0.63818454     0.37500
C1335       C  0.45917149  0.89865034  0.70322859     0.35900
C1336       C  0.39427552  0.81744692  0.54894002     0.35900
N1337       N  0.47317414  0.91448560  0.73448970    -0.38900
N1338       N  0.38129608  0.80076532  0.51784208    -0.38900
N1339       N  0.53581776  0.90830983  0.64443168    -0.38300
N1340       N  0.31584251  0.80240648  0.60950498    -0.38300
C1341       C  0.14061756  0.53511960  0.84733555    -0.05000
C1342       C  0.15802223  0.57335352  0.83954150    -0.02100
C1343       C  0.15951265  0.59743910  0.87227748     0.02900
C1344       C  0.14253654  0.58310993  0.91245653    -0.05000
C1345       C  0.12866243  0.54529742  0.92134817    -0.02100
C1346       C  0.12822737  0.52160028  0.88902640     0.02900
C1347       C  0.17232033  0.58764383  0.79712346     0.37500
C1348       C  0.11450552  0.53042353  0.96366930     0.37500
C1349       C  0.11511332  0.48314949  0.89860390     0.35900
C1350       C  0.17661869  0.63654106  0.86354009     0.35900
N1351       N  0.10493314  0.45256231  0.90609171    -0.38900
N1352       N  0.19031453  0.66773474  0.85659820    -0.38900
N1353       N  0.10338567  0.51865640  0.49677887    -0.38300
N1354       N  0.18370053  0.59895299  0.76324721    -0.38300
C1355       C  0.12900324  0.58317064  0.59457380    -0.05000
C1356       C  0.15415883  0.57001822  0.59262366    -0.02100
C1357       C  0.15608426  0.54876174  0.62654476     0.02900
C1358       C  0.13294655  0.54054018  0.66311386    -0.05000
C1359       C  0.11040880  0.55697451  0.66645713    -0.02100
C1360       C  0.10749852  0.57681610  0.63189764     0.02900
C1361       C  0.17697637  0.57676020  0.55476576     0.37500
C1362       C  0.09039151  0.55455477  0.70567540     0.37500
C1363       C  0.08271212  0.59148397  0.63561544     0.35900
C1364       C  0.18194278  0.53544868  0.62307425     0.35900
N1365       N  0.06296388  0.60307068  0.63904225    -0.38900
N1366       N  0.20281754  0.52516327  0.62014898    -0.38900
N1367       N  0.07438661  0.55273717  0.73679018    -0.38300
N1368       N  0.19515532  0.58210658  0.52458329    -0.38300
C1369       C  0.96499614  0.35675970  0.91823107    -0.05000
C1370       C  0.97523907  0.33287525  0.89815492    -0.02100
C1371       C  0.00203281  0.34590974  0.86482925     0.02900
C1372       C  0.01891084  0.38295190  0.85110065    -0.05000
C1373       C  0.00943747  0.40704878  0.87212120    -0.02100
C1374       C  0.98322131  0.39432086  0.90539975     0.02900
C1375       C  0.95877446  0.29495235  0.91205985     0.37500
C1376       C  0.02565944  0.44541981  0.85945392     0.37500
C1377       C  0.97389406  0.42045315  0.92402769     0.35900
C1378       C  0.01077414  0.32059728  0.84332591     0.35900
N1379       N  0.96713956  0.44201265  0.93779167    -0.38900
N1380       N  0.01771712  0.30038057  0.82611719    -0.38900
N1381       N  0.03694758  0.47595891  0.85054334    -0.38300
N1382       N  0.94570863  0.26469324  0.92319178    -0.38300
C1383       C  0.01256892  0.38347773  0.66119418    -0.05000
C1384       C  0.01599901  0.40458930  0.62429546    -0.02100
C1385       C  0.98848444  0.39051723  0.59253311     0.02900
C1386       C  0.95655983  0.35559033  0.59746666    -0.05000
C1387       C  0.95344286  0.33368050  0.63315666    -0.02100
C1388       C  0.98118116  0.34771132  0.66527287     0.02900
C1389       C  0.04730669  0.44151216  0.61882697     0.37500
C1390       C  0.92106772  0.29736017  0.63754779     0.37500
C1391       C  0.97580355  0.32644961  0.70392736     0.35900
C1392       C  0.99364783  0.41232039  0.55429894     0.35900
N1393       N  0.97133154  0.30964507  0.73495500    -0.38900
N1394       N  0.99872663  0.43037959  0.52427417    -0.38900
N1395       N  0.89524201  0.26833168  0.64081402    -0.38300
N1396       N  0.07150448  0.47124377  0.61383000    -0.38300
C1397       C  0.35287821  0.37342187  0.91794379    -0.05000
C1398       C  0.39002451  0.39511762  0.90376349    -0.02100
C1399       C  0.40271952  0.38426681  0.86796958     0.02900
C1400       C  0.38027206  0.34935781  0.84848293    -0.05000
C1401       C  0.34401034  0.32638937  0.86439718    -0.02100
C1402       C  0.33011806  0.33869509  0.89831536     0.02900
C1403       C  0.41593493  0.42963389  0.92476116     0.37500
C1404       C  0.32023042  0.29086418  0.84454965     0.37500
C1405       C  0.29282482  0.31495783  0.91395113     0.35900
C1406       C  0.43908857  0.41042760  0.85116956     0.35900
N1407       N  0.26310357  0.29600244  0.92656778    -0.38900
N1408       N  0.46782401  0.43263556  0.83869223    -0.38900
N1409       N  0.30119376  0.26250747  0.82871615    -0.38300
N1410       N  0.43748229  0.45698470  0.94087510    -0.38300
C1411       C  0.34039531  0.37527303  0.60528617    -0.05000
C1412       C  0.35610511  0.39528692  0.64360859    -0.02100
C1413       C  0.36993574  0.38142068  0.67487147     0.02900
C1414       C  0.36866340  0.34762585  0.66806572    -0.05000
C1415       C  0.34930130  0.32556390  0.63249026    -0.02100
C1416       C  0.33528312  0.33939626  0.60089712     0.02900
C1417       C  0.35893867  0.43069161  0.65096086     0.37500
C1418       C  0.34530308  0.28944609  0.62746827     0.37500
C1419       C  0.31804022  0.31764316  0.56269558     0.35900
C1420       C  0.38587812  0.40232567  0.71409912     0.35900
N1421       N  0.30644603  0.30094325  0.03100369    -0.38900
N1422       N  0.39836171  0.41918215  0.74523589    -0.38900
N1423       N  0.34183279  0.26047907  0.62365228    -0.38300
N1424       N  0.36172809  0.45906401  0.65748015    -0.38300
C1425       C  0.23221459  0.42222871  0.90306023    -0.05000
C1426       C  0.24745686  0.44606468  0.86741140    -0.02100
C1427       C  0.22467866  0.44502683  0.83364625     0.02900
C1428       C  0.18591038  0.42199397  0.83611605    -0.05000
C1429       C  0.17054158  0.39704215  0.87070227    -0.02100
C1430       C  0.19369617  0.39663979  0.90362334     0.02900
C1431       C  0.28664834  0.47268369  0.86533586     0.37500
C1432       C  0.13079990  0.37331492  0.87391121     0.37500
C1433       C  0.17739146  0.37133866  0.93927182     0.35900
C1434       C  0.24149036  0.46776854  0.79594011     0.35900
N1435       N  0.16435393  0.35104994  0.96761086    -0.38900
N1436       N  0.25494937  0.48579974  0.76592118    -0.38900
N1437       N  0.09908604  0.35442295  0.87674341    -0.38300
N1438       N  0.31760189  0.49482277  0.86302982    -0.38300
C1439       C  0.21932777  0.41362767  0.58922676    -0.05000
C1440       C  0.21913258  0.39957210  0.63051839    -0.02100
C1441       C  0.19466089  0.39873141  0.66243730     0.02900
C1442       C  0.17001713  0.41141483  0.65314168    -0.05000
C1443       C  0.16810581  0.42250453  0.61105863    -0.02100
C1444       C  0.19268337  0.42372510  0.57922736     0.02900
C1445       C  0.24540847  0.38796471  0.64111972     0.37500
C1446       C  0.14163311  0.43381582  0.60065528     0.37500
C1447       C  0.19071923  0.43574053  0.53613572     0.35900
C1448       C  0.19566533  0.38611671  0.70545879     0.35900
N1449       N  0.19097850  0.44794000  0.00250486    -0.38900
N1450       N  0.19623428  0.37604036  0.73982787    -0.38900
N1451       N  0.12066301  0.44284553  0.59141892    -0.38300
N1452       N  0.26617990  0.37850270  0.64984491    -0.38300
C1453       C  0.60751009  0.64114575  0.84470888    -0.05000
C1454       C  0.64325438  0.64594576  0.84083229    -0.02100
C1455       C  0.65849823  0.63540054  0.87483876     0.02900
C1456       C  0.63712108  0.61826121  0.91197473    -0.05000
C1457       C  0.60360531  0.61871970  0.91781170    -0.02100
C1458       C  0.58887152  0.62976431  0.88421409     0.02900
C1459       C  0.66385509  0.66095208  0.80144664     0.37500
C1460       C  0.58413626  0.60831059  0.95862692     0.37500
C1461       C  0.55419950  0.62918898  0.89024439     0.35900
C1462       C  0.69620588  0.64303835  0.87171418     0.35900
N1463       N  0.52675254  0.62901331  0.89545838    -0.38900
N1464       N  0.72667739  0.65009380  0.86938482    -0.38900
N1465       N  0.56852563  0.60004172  0.99106561    -0.38300
N1466       N  0.68016385  0.67302392  0.76993318    -0.38300
C1467       C  0.60211517  0.62734934  0.65956006    -0.05000
C1468       C  0.61725033  0.64850497  0.62204259    -0.02100
C1469       C  0.63215524  0.63614979  0.58951113     0.02900
C1470       C  0.63107906  0.60214436  0.59402519    -0.05000
C1471       C  0.61794760  0.58231777  0.63271403    -0.02100
C1472       C  0.60411484  0.59512536  0.66552928     0.02900
C1473       C  0.61545146  0.68169870  0.61568713     0.37500
C1474       C  0.61837313  0.54840381  0.63893450     0.37500
C1475       C  0.59209996  0.57509937  0.70576568     0.35900
C1476       C  0.64673806  0.65743967  0.55052788     0.35900
N1477       N  0.58274246  0.55918498  0.73785993    -0.38900
N1478       N  0.65642738  0.67311392  0.01850505    -0.38900
N1479       N  0.61825174  0.52118107  0.64444841    -0.38300
N1480       N  0.61384176  0.70806509  0.61029673    -0.38300
C1481       C  0.39119422  0.53805432  0.59341061    -0.05000
C1482       C  0.42948822  0.56215703  0.58563796    -0.02100
C1483       C  0.45300084  0.58370795  0.61916873     0.02900
C1484       C  0.43865750  0.58152651  0.66056399    -0.05000
C1485       C  0.40024760  0.56022221  0.66775372    -0.02100
C1486       C  0.37638781  0.53872645  0.63413250     0.02900
C1487       C  0.44509534  0.56497484  0.54316662     0.37500
C1488       C  0.38549242  0.55981311  0.71005868     0.37500
C1489       C  0.33707915  0.51579480  0.64242327     0.35900
C1490       C  0.49220379  0.60803892  0.61124292     0.35900
N1491       N  0.30575649  0.49729630  0.64905076    -0.38900
N1492       N  0.52340375  0.62758729  0.60497106    -0.38900
N1493       N  0.37376907  0.55957859  0.74381185    -0.38300
N1494       N  0.45784236  0.56727073  0.50950964    -0.38300
C1495       C  0.39381767  0.52604594  0.90919758    -0.05000
C1496       C  0.40014802  0.51116734  0.87146945    -0.02100
C1497       C  0.42430041  0.53461107  0.83950953     0.02900
C1498       C  0.44114066  0.57317968  0.84394291    -0.05000
C1499       C  0.43233793  0.58809460  0.87964244    -0.02100
C1500       C  0.40900504  0.56466892  0.91238116     0.02900
C1501       C  0.37922408  0.47180857  0.86349847     0.37500
C1502       C  0.44835429  0.62765289  0.88351095     0.37500
C1503       C  0.40141705  0.58061131  0.94964371     0.35900
C1504       C  0.43083899  0.51890815  0.80119529     0.35900
N1505       N  0.39446723  0.59400851  0.47879130    -0.38900
N1506       N  0.43605072  0.50644177  0.77063347    -0.38900
N1507       N  0.46109906  0.65919685  0.88668181    -0.38300
N1508       N  0.36176428  0.44063670  0.85609531    -0.38300
C1509       C  0.54343204  0.74196206  0.65759038    -0.05000
C1510       C  0.51014413  0.73830035  0.64120230    -0.02100
C1511       C  0.51097816  0.76345441  0.61072476     0.02900
C1512       C  0.54495540  0.79074619  0.59265914    -0.05000
C1513       C  0.57823550  0.79372434  0.60801424    -0.02100
C1514       C  0.57752591  0.77042946  0.64121547     0.02900
C1515       C  0.47444039  0.70790081  0.65435597     0.37500
C1516       C  0.61345801  0.82000617  0.58903519     0.37500
C1517       C  0.61221587  0.77682069  0.65924804     0.35900
C1518       C  0.47638604  0.76156235  0.59946000     0.35900
N1519       N  0.63993952  0.78210495  0.67366440    -0.38900
N1520       N  0.44855470  0.75969570  0.59115291    -0.38900
N1521       N  0.64160066  0.84077407  0.57382972    -0.38300
N1522       N  0.44577261  0.68377853  0.66430639    -0.38300
C1523       C  0.54728168  0.74593551  0.83916542    -0.05000
C1524       C  0.57039809  0.75425807  0.87519152    -0.02100
C1525       C  0.56999438  0.77737270  0.90790437     0.02900
C1526       C  0.54658653  0.79264106  0.90438471    -0.05000
C1527       C  0.52478700  0.78546420  0.86679492    -0.02100
C1528       C  0.52533409  0.76235847  0.83440902     0.02900
C1529       C  0.59353800  0.73785415  0.87936301     0.37500
C1530       C  0.50181717  0.80190380  0.86064488     0.37500
C1531       C  0.50350323  0.75580262  0.79567549     0.35900
C1532       C  0.59227314  0.78354024  0.94603955     0.35900
N1533       N  0.48620559  0.75083942  0.76482999    -0.38900
N1534       N  0.60802617  0.78704037  0.47767038    -0.38900
N1535       N  0.48353339  0.81495191  0.85526155    -0.38300
N1536       N  0.61211834  0.72491809  0.88272434    -0.38300
loop_ 
_geom_bond_atom_site_label_1 
_geom_bond_atom_site_label_2 
_geom_bond_distance 
_geom_bond_site_symmetry_2 
_ccdc_geom_bond_type 
O1           C16   1.261       .  A
O1           Al9   1.902       .  S
C2           O12   1.257       .  A
C2            O3   1.266       .  A
C2          C716   1.476       .  S
O3           Al5   1.932       .  S
O4            C6   1.255       .  A
O4           Al5   1.876       .  S
Al5          O13   1.883       .  S
Al5          O15   1.925       .  S
Al5          O14   1.779       .  S
C6           O19   1.262       .  A
C6          C699   1.484       .  S
O7           C17   1.263       .  A
O7           Al9   1.909       .  S
O8           C21   1.257       .  A
O8          Al18   1.869       .  S
Al9          O22   1.934       .  S
Al9          O19   1.931       .  S
Al9          O14   1.792       .  S
O10          C17   1.263       .  A
O10         Al18   1.916       .  S
O11          C20   1.260       .  A
O11         Al18   1.920       .  S
O12         Al18   1.880       .  S
O13          C20   1.255       .  A
O14         Al18   1.787       .  S
O15          C16   1.265       .  A
C16         C685   1.485       .  S
C17         C741   1.501       .  S
C20         C730   1.482       .  S
C21          O22   1.266       .  A
C21         C755   1.473       .  S
O23          C38   1.262       .  A
O23        Al799   1.930       .  S
C24          O34   1.258       .  A
C24          O25   1.253       .  A
C24         C713   1.493       .  S
O25        Al795   1.891       .  S
O26          C28   1.264       .  A
O26        Al795   1.874       .  S
Al27         O35   1.892       .  S
Al27         O37   1.895       .  S
Al27        O793   1.887       .  S
Al27        O794   1.872       .  S
Al27         O36   1.778       .  S
C28          O41   1.272       .  A
C28         C643   1.488       .  S
O29          C39   1.262       .  A
O29         Al31   1.906       .  S
O30          C43   1.257       .  A
O30         Al40   1.878       .  S
Al31         O41   1.944       .  S
Al31        O791   1.931   1_554  S
Al31        O812   1.926   1_554  S
Al31        O804   1.790       .  S
O32          C39   1.263       .  A
O32        Al808   1.903       .  S
O33          C42   1.270       .  A
O33         Al40   1.937       .  S
O34        Al808   1.914       .  S
O35          C42   1.265       .  A
O36         Al40   1.783       .  S
O36        Al799   1.789       .  S
O37          C38   1.253       .  A
C38         C629   1.499       .  S
C39         C671   1.490       .  S
Al40        O800   1.904       .  S
Al40        O802   1.912       .  S
C42         C727   1.492       .  S
C43          O44   1.264       .  A
C43         C657   1.494       .  S
O44        Al799   1.925       .  S
O45          C60   1.262       .  A
O45         Al53   1.931       .  S
C46          O56   1.260       .  A
C46          O47   1.254       .  A
C46         C590   1.504       .  S
O47         Al49   1.884       .  S
O48          C50   1.261       .  A
O48         Al49   1.865       .  S
Al49         O57   1.881       .  S
Al49         O59   1.886       .  S
Al49         O58   1.774       .  S
C50          O63   1.271       .  A
C50         C615   1.491       .  S
O51          C61   1.262       .  A
O51         Al53   1.914       .  S
O52          C65   1.258       .  A
O52         Al62   1.875       .  S
Al53         O66   1.928       .  S
Al53         O63   1.946       .  S
Al53         O58   1.791       .  S
O54          C61   1.259       .  A
O54         Al62   1.897       .  S
O55          C64   1.264       .  A
O55         Al62   1.928       .  S
O56         Al62   1.911       .  S
O57          C64   1.260       .  A
O58         Al62   1.788       .  S
O59          C60   1.253       .  A
C60         C604   1.497       .  S
C61         C674   1.481       .  S
C64         C573   1.479       .  S
C65          O66   1.265       .  A
C65         C660   1.489       .  S
O67          C82   1.263       .  A
O67        Al843   1.911       .  S
C68          O78   1.258       .  A
C68          O69   1.262       .  A
C68         C562   1.481       .  S
O69        Al839   1.920       .  S
O70          C72   1.254       .  A
O70        Al839   1.853       .  S
Al71         O79   1.862       .  S
Al71         O81   1.922       .  S
Al71        O837   1.920       .  S
Al71        O838   1.853       .  S
Al71         O80   1.768       .  S
C72          O85   1.265       .  A
C72         C534   1.473       .  S
O73          C83   1.265       .  A
O73         Al75   1.911       .  S
O74          C87   1.258       .  A
O74         Al84   1.876       .  S
Al75         O85   1.940       .  S
Al75        O835   1.911   1_554  S
Al75        O856   1.923   1_554  S
Al75        O848   1.785   1_554  S
O76          C83   1.265       .  A
O76        Al852   1.918   1_554  S
O77          C86   1.266       .  A
O77         Al84   1.934       .  S
O78        Al852   1.898   1_554  S
O79          C86   1.253       .  A
O80         Al84   1.780       .  S
O80        Al843   1.785       .  S
O81          C82   1.263       .  A
C82         C520   1.485       .  S
C83         C744   1.502       .  S
Al84        O844   1.920       .  S
Al84        O846   1.897       .  S
C86         C548   1.508       .  S
C87          O88   1.266       .  A
C87         C758   1.493       .  S
O88        Al843   1.924       .  S
O89         C104   1.264       .  A
O89        Al865   1.935       .  S
C90         O100   1.255       .  A
C90          O91   1.254       .  A
C90         C503   1.477       .  S
O91        Al861   1.911       .  S
O92          C94   1.263       .  A
O92        Al861   1.879       .  S
Al93        O101   1.882       .  S
Al93        O103   1.896       .  S
Al93        O859   1.910       .  S
Al93        O860   1.879       .  S
Al93        O102   1.775       .  S
C94         O107   1.271       .  A
C94         C618   1.479       .  S
O95         C105   1.265       .  A
O95         Al97   1.917       .  S
O96         C109   1.256       .  A
O96        Al106   1.863       .  S
Al97        O107   1.945       .  S
Al97        O857   1.932   1_554  S
Al97        O878   1.929   1_554  S
Al97        O870   1.787       .  S
O98         C105   1.262       .  A
O98        Al874   1.903   1_554  S
O99         C108   1.268       .  A
O99        Al106   1.931       .  S
O100       Al874   1.897   1_554  S
O101        C108   1.262       .  A
O102       Al106   1.776       .  S
O102       Al865   1.788       .  S
O103        C104   1.254       .  A
C104        C601   1.504       .  S
C105        C475   1.499       .  S
Al106       O866   1.904       .  S
Al106       O868   1.898       .  S
C108        C492   1.492       .  S
C109        O110   1.264       .  A
C109        C461   1.499       .  S
O110       Al865   1.929       .  S
O111        C126   1.264       .  A
O111       Al119   1.918       .  S
C112        O122   1.263       .  A
C112        O113   1.263       .  A
C112        C447   1.509       .  S
O113       Al115   1.914       .  S
O114        C116   1.258       .  A
O114       Al115   1.866       .  S
Al115       O123   1.890       .  S
Al115       O125   1.902       .  S
Al115       O124   1.781       .  S
C116        O129   1.260       .  A
C116        C531   1.477       .  S
O117        C127   1.264       .  A
O117       Al119   1.922       .  S
O118        C131   1.260       .  A
O118       Al128   1.887       .  S
Al119       O132   1.917       .  S
Al119       O129   1.913       .  S
Al119       O124   1.799       .  S
O120        C127   1.259       .  A
O120       Al128   1.896       .  S
O121        C130   1.259       .  A
O121       Al128   1.901       .  S
O122       Al128   1.915       .  S
O123        C130   1.259       .  A
O124       Al128   1.779       .  S
O125        C126   1.261       .  A
C126        C517   1.491       .  S
C127        C478   1.514       .  S
C130        C433   1.489       .  S
C131        O132   1.261       .  A
C131        C464   1.487       .  S
O133        C148   1.265       .  A
O133       Al141   1.921       .  S
C134        O144   1.258       .  A
C134        O135   1.262       .  A
C134        C506   1.487       .  S
O135       Al137   1.916       .  S
O136        C138   1.262       .  A
O136       Al137   1.893       .  S
Al137       O145   1.892       .  S
Al137       O147   1.893       .  S
Al137       O146   1.779       .  S
C138        O151   1.266       .  A
C138        C391   1.490       .  S
O139        C149   1.265       .  A
O139       Al141   1.918       .  S
O140        C153   1.257       .  A
O140       Al150   1.885       .  S
Al141       O154   1.931       .  S
Al141       O151   1.935       .  S
Al141       O146   1.794       .  S
O142        C149   1.261       .  A
O142       Al150   1.901       .  S
O143        C152   1.262       .  A
O143       Al150   1.914       .  S
O144       Al150   1.895       .  S
O145        C152   1.259       .  A
O146       Al150   1.784       .  S
O147        C148   1.259       .  A
C148        C377   1.505       .  S
C149        C405   1.512       .  S
C152        C489   1.488       .  S
C153        O154   1.264       .  A
C153        C419   1.483       .  S
O155        C170   1.260       .  A
O155       Al931   1.901       .  S
C156        O166   1.261       .  A
C156        O157   1.263       .  A
C156        C450   1.486       .  S
O157       Al927   1.921       .  S
O158        C160   1.254       .  A
O158       Al927   1.854       .  S
Al159       O167   1.869       .  S
Al159       O169   1.917       .  S
Al159       O925   1.919       .  S
Al159       O926   1.856       .  S
Al159       O168   1.776       .  S
C160        O173   1.263       .  A
C160        C335   1.469       .  S
O161        C171   1.262       .  A
O161       Al163   1.898   1_554  S
O162        C175   1.258       .  A
O162       Al172   1.883       .  S
Al163       O173   1.932   1_556  S
Al163       O923   1.900       .  S
Al163       O944   1.922       .  S
Al163       O936   1.790   1_556  S
O164        C171   1.265       .  A
O164       Al940   1.927       .  S
O165        C174   1.263       .  A
O165       Al172   1.926       .  S
O166       Al940   1.905       .  S
O167        C174   1.255       .  A
O168       Al172   1.783       .  S
O168       Al931   1.790       .  S
O169        C170   1.262       .  A
C170        C321   1.478       .  S
C171        C352   1.482       .  S
Al172       O932   1.923       .  S
Al172       O934   1.904       .  S
C174        C436   1.474       .  S
C175        O176   1.263       .  A
C175        C363   1.486       .  S
O176       Al931   1.922       .  S
O177        C192   1.262       .  A
O177       Al953   1.940       .  S
C178        O188   1.258       .  A
C178        O179   1.254       .  A
C178        C310   1.500       .  S
O179       Al949   1.894   1_554  S
O180        C182   1.262       .  A
O180       Al949   1.885   1_554  S
Al181       O189   1.889       .  S
Al181       O191   1.876       .  S
Al181       O947   1.896       .  S
Al181       O948   1.883       .  S
Al181       O190   1.784       .  S
C182        O195   1.269       .  A
C182        C702   1.487       .  S
O183        C193   1.261       .  A
O183       Al185   1.919   1_554  S
O184        C197   1.259       .  A
O184       Al194   1.885       .  S
Al185       O195   1.938   1_556  S
Al185       O945   1.939       .  S
Al185       O966   1.921       .  S
Al185       O958   1.801       .  S
O186        C193   1.257       .  A
O186       Al962   1.897   1_554  S
O187        C196   1.266       .  A
O187       Al194   1.931       .  S
O188       Al962   1.911   1_554  S
O189        C196   1.261       .  A
O190       Al194   1.796       .  S
O190       Al953   1.801       .  S
O191        C192   1.252       .  A
C192        C688   1.508       .  S
C193        C408   1.493       .  S
Al194       O954   1.896       .  S
Al194       O956   1.912       .  S
C196        C293   1.477       .  S
C197        O198   1.265       .  A
C197        C422   1.480       .  S
O198       Al953   1.921       .  S
O199        C214   1.263       .  A
O199       Al207   1.928       .  S
C200        O210   1.261       .  A
C200        O201   1.259       .  A
C200        C307   1.491       .  S
O201       Al203   1.904       .  S
O202        C204   1.259       .  A
O202       Al203   1.868       .  S
Al203       O211   1.875       .  S
Al203       O213   1.894       .  S
Al203       O212   1.770       .  S
C204        O217   1.267       .  A
C204        C646   1.477       .  S
O205        C215   1.264       .  A
O205       Al207   1.915       .  S
O206        C219   1.260       .  A
O206       Al216   1.879       .  S
Al207       O220   1.917       .  S
Al207       O217   1.940       .  S
Al207       O212   1.786       .  S
O208        C215   1.258       .  A
O208       Al216   1.896       .  S
O209        C218   1.265       .  A
O209       Al216   1.933       .  S
O210       Al216   1.912       .  S
O211        C218   1.257       .  A
O212       Al216   1.787       .  S
O213        C214   1.255       .  A
C214        C632   1.496       .  S
C215        C349   1.480       .  S
C218        C296   1.480       .  S
C219        O220   1.265       .  A
C219        C366   1.501       .  S
O221        C236   1.265       .  A
O221       Al997   1.929       .  S
C222        O232   1.262       .  A
C222        O223   1.261       .  A
C222        C587   1.488       .  S
O223       Al993   1.886   1_554  S
O224        C226   1.258       .  A
O224       Al993   1.894   1_554  S
Al225       O233   1.895       .  S
Al225       O235   1.887       .  S
Al225       O991   1.885       .  S
Al225       O992   1.896       .  S
Al225       O234   1.786       .  S
C226        O239   1.261       .  A
C226        C394   1.500       .  S
O227        C237   1.262       .  A
O227       Al229   1.918   1_554  S
O228        C241   1.260       .  A
O228       Al238   1.897       .  S
Al229       O239   1.915   1_556  S
Al229       O989   1.928       .  S
Al229      O1010   1.899       .  S
Al229      O1002   1.799       .  S
O230        C237   1.258       .  A
O230      Al1006   1.884       .  S
O231        C240   1.258       .  A
O231       Al238   1.903       .  S
O232      Al1006   1.912       .  S
O233        C240   1.257       .  A
O234       Al238   1.793       .  S
O234       Al997   1.799       .  S
O235        C236   1.261       .  A
C236        C380   1.489       .  S
C237        C279   1.488       .  S
Al238       O998   1.883       .  S
Al238      O1000   1.913       .  S
C240        C576   1.489       .  S
C241        O242   1.261       .  A
C241        C265   1.492       .  S
O242       Al997   1.900       .  S
O243        C258   1.261       .  A
O243       Al251   1.908       .  S
C244        O254   1.259       .  A
C244        O245   1.261       .  A
C244        C559   1.498       .  S
O245       Al247   1.915       .  S
O246        C248   1.261       .  A
O246       Al247   1.875       .  S
Al247       O255   1.892       .  S
Al247       O257   1.898       .  S
Al247       O256   1.777       .  S
C248        O261   1.263       .  A
C248        C338   1.474       .  S
O249        C259   1.260       .  A
O249       Al251   1.899       .  S
O250        C263   1.259       .  A
O250       Al260   1.890       .  S
Al251       O264   1.911       .  S
Al251       O261   1.916       .  S
Al251       O256   1.794       .  S
O252        C259   1.261       .  A
O252       Al260   1.897       .  S
O253        C262   1.263       .  A
O253       Al260   1.916       .  S
O254       Al260   1.900       .  S
O255        C262   1.261       .  A
O256       Al260   1.784       .  S
O257        C258   1.258       .  A
C258        C324   1.497       .  S
C259        C282   1.494       .  S
C262        C545   1.496       .  S
C263        O264   1.262       .  A
C263        C268   1.483       .  S
C265        C266   1.420       .  A
C265        C270   1.417       .  A
C266        C267   1.410       .  A
C266        C271   1.453       .  S
C267        C268   1.410       .  A
C267        C274   1.452       .  S
C268        C269   1.413       .  A
C269        C270   1.412       .  A
C269        C272   1.452       .  S
C270        C273   1.451       .  S
C271        N278   1.157       .  T
C272        N277   1.157       .  T
C273        N275   1.157       .  T
C274        N276   1.157       .  T
C279        C280   1.411       .  A
C279        C284   1.414       .  A
C280        C281   1.407       .  A
C280        C285   1.448       .  S
C281        C282   1.417       .  A
C281        C288   1.454       .  S
C282        C283   1.419       .  A
C283        C284   1.415       .  A
C283        C286   1.450       .  S
C284        C287   1.452       .  S
C285        N292   1.156       .  T
C286        N291   1.158       .  T
C287       N1057   1.157       .  T
C288        N290   1.157       .  T
N289       C1055   1.157       .  T
C293        C294   1.411       .  A
C293        C298   1.411       .  A
C294        C295   1.413       .  A
C294        C299   1.448       .  S
C295        C296   1.413       .  A
C295        C302   1.451       .  S
C296        C297   1.412       .  A
C297        C298   1.406       .  A
C297        C300   1.453       .  S
C298        C301   1.451       .  S
C299        N306   1.157       .  T
C300        N305   1.157       .  T
C301       N1071   1.157       .  T
C302        N304   1.158       .  T
N303       C1069   1.157       .  T
C307        C308   1.414       .  A
C307        C312   1.415       .  A
C308        C309   1.416       .  A
C308        C313   1.451       .  S
C309        C310   1.419       .  A
C309        C316   1.451       .  S
C310        C311   1.421       .  A
C311        C312   1.406       .  A
C311        C314   1.455       .  S
C312        C315   1.454       .  S
C313        N320   1.157       .  T
C314        N319   1.158       .  T
C315        N317   1.157       .  T
C316        N318   1.157       .  T
C321        C322   1.407       .  A
C321        C326   1.409   1_545  A
C322        C323   1.411       .  A
C322        C327   1.452       .  S
C323        C324   1.422   1_545  A
C323        C330   1.453       .  S
C324        C325   1.418       .  A
C325        C326   1.413       .  A
C325        C328   1.451       .  S
C326        C329   1.451       .  S
C327        N334   1.157       .  T
C328        N333   1.157       .  T
C329        N331   1.157       .  T
C330        N332   1.158       .  T
C335        C336   1.408       .  A
C335        C340   1.411   1_545  A
C336        C337   1.412   1_545  A
C336        C341   1.449       .  S
C337        C338   1.415       .  A
C337        C344   1.450       .  S
C338        C339   1.409       .  A
C339        C340   1.399       .  A
C339        C342   1.450       .  S
C340        C343   1.453       .  S
C341        N348   1.157       .  T
C342        N347   1.156       .  T
C343       N1113   1.158       .  T
C344        N346   1.157       .  T
N345       C1111   1.158       .  T
C349        C350   1.411       .  A
C349        C354   1.413       .  A
C350        C351   1.412       .  A
C350        C355   1.452       .  S
C351        C352   1.413       .  A
C351        C358   1.450       .  S
C352        C353   1.410       .  A
C353        C354   1.411       .  A
C353        C356   1.450       .  S
C354        C357   1.450       .  S
C355        N362   1.157       .  T
C356        N361   1.157       .  T
C357        N359   1.157       .  T
C358       N1128   1.157       .  T
N360       C1126   1.157       .  T
C363        C364   1.412       .  A
C363        C368   1.412       .  A
C364        C365   1.412       .  A
C364        C369   1.452       .  S
C365        C366   1.423       .  A
C365        C372   1.452       .  S
C366        C367   1.423       .  A
C367        C368   1.409       .  A
C367        C370   1.453       .  S
C368        C371   1.454       .  S
C369        N376   1.157       .  T
C370        N375   1.157       .  T
C371        N373   1.157       .  T
C372        N374   1.158       .  T
C377        C378   1.420       .  A
C377        C382   1.424   1_655  A
C378        C379   1.417       .  A
C378        C383   1.450       .  S
C379        C380   1.413   1_655  A
C379        C386   1.452       .  S
C380        C381   1.409       .  A
C381        C382   1.410       .  A
C381        C384   1.452       .  S
C382        C385   1.454       .  S
C383        N390   1.158       .  T
C384        N389   1.157       .  T
C385        N387   1.158       .  T
C386       N1156   1.157       .  T
N388       C1154   1.157       .  T
C391        C392   1.409       .  A
C391        C396   1.415       .  A
C392        C393   1.409       .  A
C392        C397   1.449       .  S
C393        C394   1.420   1_655  A
C393        C400   1.453       .  S
C394        C395   1.419       .  A
C395        C396   1.418   1_455  A
C395        C398   1.451       .  S
C396        C399   1.451   1_655  S
C397        N404   1.155       .  T
C398        N403   1.157       .  T
C399        N401   1.158       .  T
C400        N402   1.158   1_554  T
C405        C406   1.425       .  A
C405        C410   1.423       .  A
C406        C407   1.412       .  A
C406        C411   1.454       .  S
C407        C408   1.410       .  A
C407        C414   1.449       .  S
C408        C409   1.411       .  A
C409        C410   1.420       .  A
C409        C412   1.450       .  S
C410        C413   1.451       .  S
C411        N418   1.158       .  T
C412        N417   1.157       .  T
C413        N415   1.158       .  T
C414        N416   1.156       .  T
C419        C420   1.413       .  A
C419        C424   1.413       .  A
C420        C421   1.411       .  A
C420        C425   1.450       .  S
C421        C422   1.409       .  A
C421        C428   1.449       .  S
C422        C423   1.412       .  A
C423        C424   1.412       .  A
C423        C426   1.452       .  S
C424        C427   1.451       .  S
C425        N432   1.157       .  T
C426       N1199   1.158       .  T
C427        N429   1.157       .  T
C428        N430   1.157       .  T
N431       C1194   1.157       .  T
C433        C434   1.421       .  A
C433        C438   1.416       .  A
C434        C435   1.411       .  A
C434        C439   1.453       .  S
C435        C436   1.408       .  A
C435        C442   1.451       .  S
C436        C437   1.409       .  A
C437        C438   1.406       .  A
C437        C440   1.454       .  S
C438        C441   1.449       .  S
C439        N446   1.157       .  T
C440        N445   1.157       .  T
C441        N443   1.156       .  T
C442        N444   1.157       .  T
C447        C448   1.424       .  A
C447        C452   1.422       .  A
C448        C449   1.414       .  A
C448        C453   1.452       .  S
C449        C450   1.409       .  A
C449        C456   1.452       .  S
C450        C451   1.409       .  A
C451        C452   1.416       .  A
C451        C454   1.452       .  S
C452        C455   1.448       .  S
C453        N460   1.158       .  T
C454       N1227   1.158       .  T
C455        N457   1.156       .  T
C456        N458   1.157       .  T
N459       C1222   1.158       .  T
C461        C462   1.420       .  A
C461        C466   1.419       .  A
C462        C463   1.417       .  A
C462        C467   1.450       .  S
C463        C464   1.415       .  A
C463        C470   1.451       .  S
C464        C465   1.412       .  A
C465        C466   1.404       .  A
C465        C468   1.453       .  S
C466        C469   1.453       .  S
C467        N474   1.157       .  T
C468        N473   1.157       .  T
C469        N471   1.157       .  T
C470        N472   1.158       .  T
C475        C476   1.415       .  A
C475        C480   1.415       .  A
C476        C477   1.421       .  A
C476        C481   1.451       .  S
C477        C478   1.424       .  A
C477        C484   1.451       .  S
C478        C479   1.426       .  A
C479        C480   1.408       .  A
C479        C482   1.456       .  S
C480        C483   1.454       .  S
C481        N488   1.157       .  T
C482        N487   1.158       .  T
C483        N485   1.157       .  T
C484        N486   1.158       .  T
C489        C490   1.419       .  A
C489        C494   1.415       .  A
C490        C491   1.413       .  A
C490        C495   1.452       .  S
C491        C492   1.414       .  A
C491        C498   1.450       .  S
C492        C493   1.411       .  A
C493        C494   1.405       .  A
C493        C496   1.450       .  S
C494        C497   1.453       .  S
C495        N502   1.158       .  T
C496        N501   1.157       .  T
C497        N499   1.157       .  T
C498        N500   1.157       .  T
C503        C504   1.408       .  A
C503        C508   1.412       .  A
C504        C505   1.409       .  A
C504        C509   1.453       .  S
C505        C506   1.415       .  A
C505        C512   1.448       .  S
C506        C507   1.413       .  A
C507        C508   1.412       .  A
C507        C510   1.452       .  S
C508        C511   1.447       .  S
C509        N516   1.157       .  T
C510        N515   1.158       .  T
C511       N1281   1.156       .  T
C512        N514   1.156       .  T
N513       C1279   1.156       .  T
C517        C518   1.417   1_545  A
C517        C522   1.415       .  A
C518        C519   1.411       .  A
C518        C523   1.452       .  S
C519        C520   1.408       .  A
C519        C526   1.448       .  S
C520        C521   1.411       .  A
C521        C522   1.414   1_565  A
C521        C524   1.450   1_565  S
C522        C525   1.449       .  S
C523        N530   1.157       .  T
C524        N529   1.157       .  T
C525        N527   1.157       .  T
C526        N528   1.156       .  T
C531        C532   1.410       .  A
C531        C536   1.416   1_545  A
C532        C533   1.398   1_545  A
C532        C537   1.452       .  S
C533        C534   1.413       .  A
C533        C540   1.455   1_565  S
C534        C535   1.409       .  A
C535        C536   1.413       .  A
C535        C538   1.449       .  S
C536        C539   1.450       .  S
C537        N544   1.156       .  T
C538        N543   1.157       .  T
C539        N541   1.157       .  T
C540        N542   1.158       .  T
C545        C546   1.419       .  A
C545        C550   1.415       .  A
C546        C547   1.412       .  A
C546        C551   1.453       .  S
C547        C548   1.421       .  A
C547        C554   1.453       .  S
C548        C549   1.428       .  A
C549        C550   1.410       .  A
C549        C552   1.455       .  S
C550        C553   1.456       .  S
C551        N558   1.158       .  T
C552       N1325   1.158       .  T
C553        N555   1.157       .  T
C554        N556   1.157       .  T
N557       C1320   1.158       .  T
C559        C560   1.420       .  A
C559        C564   1.421       .  A
C560        C561   1.414       .  A
C560        C565   1.451       .  S
C561        C562   1.409       .  A
C561        C568   1.450       .  S
C562        C563   1.408       .  A
C563        C564   1.411       .  A
C563        C566   1.452       .  S
C564        C567   1.452       .  S
C565        N572   1.158       .  T
C566        N571   1.157       .  T
C567        N569   1.157       .  T
C568        N570   1.157       .  T
C573        C574   1.413       .  A
C573        C578   1.408       .  A
C574        C575   1.413       .  A
C574        C579   1.451       .  S
C575        C576   1.416       .  A
C575        C582   1.451       .  S
C576        C577   1.419       .  A
C577        C578   1.407       .  A
C577        C580   1.452       .  S
C578        C581   1.454       .  S
C579        N586   1.158       .  T
C580       N1353   1.158       .  T
C581        N583   1.157       .  T
C582        N584   1.157       .  T
N585       C1348   1.158       .  T
C587        C588   1.416       .  A
C587        C592   1.411       .  A
C588        C589   1.414       .  A
C588        C593   1.452       .  S
C589        C590   1.420       .  A
C589        C596   1.452       .  S
C590        C591   1.426       .  A
C591        C592   1.406       .  A
C591        C594   1.455       .  S
C592        C595   1.454       .  S
C593        N600   1.158       .  T
C594        N599   1.158       .  T
C595        N597   1.157       .  T
C596        N598   1.157       .  T
C601        C602   1.419       .  A
C601        C606   1.424       .  A
C602        C603   1.421   1_655  A
C602        C607   1.450       .  S
C603        C604   1.415       .  A
C603        C610   1.450       .  S
C604        C605   1.418       .  A
C605        C606   1.405   1_455  A
C605        C608   1.456       .  S
C606        C609   1.457       .  S
C607        N614   1.157       .  T
C608        N613   1.157       .  T
C609        N611   1.158       .  T
C610        N612   1.157       .  T
C615        C616   1.417       .  A
C615        C620   1.419   1_455  A
C616        C617   1.403   1_455  A
C616        C621   1.452       .  S
C617        C618   1.411       .  A
C617        C624   1.454       .  S
C618        C619   1.410       .  A
C619        C620   1.417       .  A
C619        C622   1.450       .  S
C620        C623   1.450       .  S
C621        N628   1.157       .  T
C622        N627   1.158       .  T
C623        N625   1.157       .  T
C624        N626   1.157       .  T
C629        C630   1.421       .  A
C629        C634   1.417       .  A
C630        C631   1.404       .  A
C630        C635   1.456       .  S
C631        C632   1.418       .  A
C631        C638   1.455       .  S
C632        C633   1.416       .  A
C633        C634   1.421       .  A
C633        C636   1.450       .  S
C634        C637   1.450       .  S
C635        N642   1.158       .  T
C636        N641   1.157       .  T
C637        N639   1.157       .  T
C638        N640   1.157       .  T
C643        C644   1.415       .  A
C643        C648   1.419       .  A
C644        C645   1.404       .  A
C644        C649   1.450       .  S
C645        C646   1.411       .  A
C645        C652   1.454       .  S
C646        C647   1.408       .  A
C647        C648   1.415       .  A
C647        C650   1.449       .  S
C648        C651   1.450       .  S
C649        N656   1.156       .  T
C650        N655   1.157       .  T
C651       N1421   1.157       .  T
C652        N654   1.157       .  T
N653       C1419   1.157       .  T
C657        C658   1.416       .  A
C657        C662   1.418       .  A
C658        C659   1.406       .  A
C658        C663   1.449       .  S
C659        C660   1.412       .  A
C659        C666   1.455       .  S
C660        C661   1.414       .  A
C661        C662   1.418       .  A
C661        C664   1.450       .  S
C662        C665   1.451       .  S
C663        N670   1.156       .  T
C664        N669   1.157       .  T
C665        N667   1.157       .  T
C666        N668   1.157       .  T
C671        C672   1.416       .  A
C671        C676   1.415       .  A
C672        C673   1.415       .  A
C672        C677   1.450       .  S
C673        C674   1.411       .  A
C673        C680   1.451       .  S
C674        C675   1.409       .  A
C675        C676   1.410       .  A
C675        C678   1.447       .  S
C676        C679   1.453       .  S
C677        N684   1.157       .  T
C678        N683   1.156       .  T
C679       N1449   1.157       .  T
C680        N682   1.157       .  T
N681       C1447   1.157       .  T
C685        C686   1.411       .  A
C685        C690   1.406       .  A
C686        C687   1.420       .  A
C686        C691   1.449       .  S
C687        C688   1.418       .  A
C687        C694   1.447       .  S
C688        C689   1.424       .  A
C689        C690   1.409       .  A
C689        C692   1.453       .  S
C690        C693   1.452       .  S
C691        N698   1.157       .  T
C692        N697   1.158       .  T
C693        N695   1.157       .  T
C694        N696   1.157       .  T
C699        C700   1.412       .  A
C699        C704   1.412       .  A
C700        C701   1.417       .  A
C700        C705   1.450       .  S
C701        C702   1.416       .  A
C701        C708   1.450       .  S
C702        C703   1.412       .  A
C703        C704   1.407       .  A
C703        C706   1.448       .  S
C704        C707   1.453       .  S
C705        N712   1.157       .  T
C706        N711   1.155       .  T
C707        N709   1.157       .  T
C708       N1478   1.158       .  T
N710       C1476   1.158       .  T
C713        C714   1.421       .  A
C713        C718   1.417       .  A
C714        C715   1.408       .  A
C714        C719   1.453       .  S
C715        C716   1.406       .  A
C715        C722   1.453       .  S
C716        C717   1.410       .  A
C717        C718   1.414       .  A
C717        C720   1.451       .  S
C718        C721   1.451       .  S
C719        N726   1.158       .  T
C720        N725   1.157       .  T
C721        N723   1.158       .  T
C722        N724   1.157       .  T
C727        C728   1.415       .  A
C727        C732   1.418       .  A
C728        C729   1.408       .  A
C728        C733   1.450       .  S
C729        C730   1.411       .  A
C729        C736   1.453       .  S
C730        C731   1.412       .  A
C731        C732   1.414       .  A
C731        C734   1.451       .  S
C732        C735   1.451       .  S
C733        N740   1.157       .  T
C734        N739   1.157       .  T
C735       N1505   1.157       .  T
C736        N738   1.157       .  T
N737       C1503   1.157       .  T
C741        C742   1.418       .  A
C741        C746   1.418       .  A
C742        C743   1.410       .  A
C742        C747   1.454       .  S
C743        C744   1.419       .  A
C743        C750   1.454       .  S
C744        C745   1.418       .  A
C745        C746   1.416       .  A
C745        C748   1.451       .  S
C746        C749   1.451       .  S
C747        N754   1.158       .  T
C748        N753   1.157       .  T
C749        N751   1.157       .  T
C750        N752   1.158       .  T
C755        C756   1.406       .  A
C755        C760   1.409       .  A
C756        C757   1.412       .  A
C756        C761   1.451       .  S
C757        C758   1.421       .  A
C757        C764   1.451       .  S
C758        C759   1.421       .  A
C759        C760   1.406       .  A
C759        C762   1.453       .  S
C760        C763   1.454       .  S
C761        N768   1.157       .  T
C762        N767   1.157       .  T
C763        N765   1.157       .  T
C764       N1534   1.157       .  T
N766       C1532   1.157       .  T
O769        C784   1.262       .  A
O769       Al777   1.903       .  S
C770        O780   1.257       .  A
C770        O771   1.265       .  A
C770       C1484   1.473       .  S
O771       Al773   1.926       .  S
O772        C774   1.255       .  A
O772       Al773   1.878       .  S
Al773       O781   1.883       .  S
Al773       O783   1.922       .  S
Al773       O782   1.781       .  S
C774        O787   1.261       .  A
C774       C1467   1.484       .  S
O775        C785   1.263       .  A
O775       Al777   1.911       .  S
O776        C789   1.257       .  A
O776       Al786   1.870       .  S
Al777       O790   1.931       .  S
Al777       O787   1.927       .  S
Al777       O782   1.793       .  S
O778        C785   1.263       .  A
O778       Al786   1.918       .  S
O779        C788   1.260       .  A
O779       Al786   1.920       .  S
O780       Al786   1.878       .  S
O781        C788   1.255       .  A
O782       Al786   1.788       .  S
O783        C784   1.265       .  A
C784       C1453   1.485       .  S
C785       C1509   1.502       .  S
C788       C1498   1.482       .  S
C789        O790   1.265       .  A
C789       C1523   1.472       .  S
O791        C806   1.262       .  A
C792        O802   1.258       .  A
C792        O793   1.253       .  A
C792       C1481   1.491       .  S
O794        C796   1.263       .  A
Al795       O803   1.893   1_554  S
Al795       O805   1.896   1_554  S
Al795       O804   1.779       .  S
C796        O809   1.272       .  A
C796       C1411   1.489       .  S
O797        C807   1.261       .  A
O797       Al799   1.904       .  S
O798        C811   1.257       .  A
O798       Al808   1.879   1_556  S
Al799       O809   1.944       .  S
O800        C807   1.263       .  A
O801        C810   1.270       .  A
O801       Al808   1.935   1_556  S
O803        C810   1.265       .  A
O804       Al808   1.782       .  S
O805        C806   1.253       .  A
C806       C1397   1.500       .  S
C807       C1439   1.489       .  S
C810       C1495   1.492       .  S
C811        O812   1.264       .  A
C811       C1425   1.496       .  S
O813        C828   1.262       .  A
O813       Al821   1.931       .  S
C814        O824   1.260       .  A
C814        O815   1.254       .  A
C814       C1358   1.505       .  S
O815       Al817   1.885       .  S
O816        C818   1.261       .  A
O816       Al817   1.866       .  S
Al817       O825   1.883       .  S
Al817       O827   1.886       .  S
Al817       O826   1.774       .  S
C818        O831   1.272       .  A
C818       C1383   1.491       .  S
O819        C829   1.262       .  A
O819       Al821   1.914       .  S
O820        C833   1.259       .  A
O820       Al830   1.876       .  S
Al821       O834   1.930       .  S
Al821       O831   1.948       .  S
Al821       O826   1.790       .  S
O822        C829   1.259       .  A
O822       Al830   1.897       .  S
O823        C832   1.265       .  A
O823       Al830   1.929       .  S
O824       Al830   1.912       .  S
O825        C832   1.260       .  A
O826       Al830   1.786       .  S
O827        C828   1.253       .  A
C828       C1372   1.496       .  S
C829       C1442   1.480       .  S
C832       C1341   1.480       .  S
C833        O834   1.265       .  A
C833       C1428   1.490       .  S
O835        C850   1.263       .  A
C836        O846   1.258       .  A
C836        O837   1.262       .  A
C836       C1330   1.481       .  S
O838        C840   1.254       .  A
Al839       O847   1.861   1_554  S
Al839       O849   1.923   1_554  S
Al839       O848   1.768   1_554  S
C840        O853   1.265       .  A
C840       C1302   1.474       .  S
O841        C851   1.265       .  A
O841       Al843   1.911       .  S
O842        C855   1.258       .  A
O842       Al852   1.874       .  S
Al843       O853   1.942       .  S
O844        C851   1.266       .  A
O845        C854   1.266       .  A
O845       Al852   1.934       .  S
O847        C854   1.253       .  A
O848       Al852   1.779       .  S
O849        C850   1.263       .  A
C850       C1288   1.486       .  S
C851       C1512   1.503       .  S
C854       C1316   1.507       .  S
C855        O856   1.265       .  A
C855       C1526   1.492       .  S
O857        C872   1.264       .  A
C858        O868   1.255       .  A
C858        O859   1.254       .  A
C858       C1271   1.478       .  S
O860        C862   1.263       .  A
Al861       O869   1.883   1_554  S
Al861       O871   1.897   1_554  S
Al861       O870   1.774       .  S
C862        O875   1.270       .  A
C862       C1386   1.479       .  S
O863        C873   1.265       .  A
O863       Al865   1.919       .  S
O864        C877   1.255       .  A
O864       Al874   1.859       .  S
Al865       O875   1.945       .  S
O866        C873   1.262       .  A
O867        C876   1.268       .  A
O867       Al874   1.931       .  S
O869        C876   1.262       .  A
O870       Al874   1.775   1_554  S
O871        C872   1.255       .  A
C872       C1369   1.503       .  S
C873       C1243   1.500       .  S
C876       C1260   1.492       .  S
C877        O878   1.264       .  A
C877       C1229   1.497       .  S
O879        C894   1.264       .  A
O879       Al887   1.918       .  S
C880        O890   1.263       .  A
C880        O881   1.262       .  A
C880       C1215   1.507       .  S
O881       Al883   1.912       .  S
O882        C884   1.258       .  A
O882       Al883   1.868       .  S
Al883       O891   1.893       .  S
Al883       O893   1.903       .  S
Al883       O892   1.780       .  S
C884        O897   1.260       .  A
C884       C1299   1.478       .  S
O885        C895   1.264       .  A
O885       Al887   1.921       .  S
O886        C899   1.260       .  A
O886       Al896   1.886       .  S
Al887       O900   1.915       .  S
Al887       O897   1.913       .  S
Al887       O892   1.798       .  S
O888        C895   1.260       .  A
O888       Al896   1.901       .  S
O889        C898   1.259       .  A
O889       Al896   1.903       .  S
O890       Al896   1.913       .  S
O891        C898   1.260       .  A
O892       Al896   1.778       .  S
O893        C894   1.261       .  A
C894       C1285   1.491       .  S
C895       C1246   1.515       .  S
C898       C1201   1.493       .  S
C899        O900   1.261       .  A
C899       C1232   1.485       .  S
O901        C916   1.265       .  A
O901       Al909   1.921       .  S
C902        O912   1.258       .  A
C902        O903   1.261       .  A
C902       C1274   1.486       .  S
O903       Al905   1.916       .  S
O904        C906   1.262       .  A
O904       Al905   1.894       .  S
Al905       O913   1.892       .  S
Al905       O915   1.894       .  S
Al905       O914   1.778       .  S
C906        O919   1.266       .  A
C906       C1159   1.491       .  S
O907        C917   1.264       .  A
O907       Al909   1.915       .  S
O908        C921   1.257       .  A
O908       Al918   1.885       .  S
Al909       O922   1.932       .  S
Al909       O919   1.936       .  S
Al909       O914   1.794       .  S
O910        C917   1.262       .  A
O910       Al918   1.901       .  S
O911        C920   1.262       .  A
O911       Al918   1.914       .  S
O912       Al918   1.895       .  S
O913        C920   1.260       .  A
O914       Al918   1.783       .  S
O915        C916   1.259       .  A
C916       C1145   1.506       .  S
C917       C1173   1.512       .  S
C920       C1257   1.488       .  S
C921        O922   1.264       .  A
C921       C1187   1.483       .  S
O923        C938   1.260       .  A
C924        O934   1.261       .  A
C924        O925   1.262       .  A
C924       C1218   1.485       .  S
O926        C928   1.254       .  A
Al927       O935   1.869   1_554  S
Al927       O937   1.917   1_554  S
Al927       O936   1.775       .  S
C928        O941   1.262       .  A
C928       C1103   1.469       .  S
O929        C939   1.262       .  A
O929       Al931   1.898       .  S
O930        C943   1.259       .  A
O930       Al940   1.882   1_556  S
Al931       O941   1.930       .  S
O932        C939   1.265       .  A
O933        C942   1.264       .  A
O933       Al940   1.931   1_556  S
O935        C942   1.254       .  A
O936       Al940   1.782       .  S
O937        C938   1.262       .  A
C938       C1089   1.477       .  S
C939       C1120   1.480       .  S
C942       C1204   1.477       .  S
C943        O944   1.263       .  A
C943       C1131   1.485       .  S
O945        C960   1.262       .  A
C946        O956   1.258       .  A
C946        O947   1.254       .  A
C946       C1078   1.502       .  S
O948        C950   1.262       .  A
Al949       O957   1.890       .  S
Al949       O959   1.873       .  S
Al949       O958   1.785       .  S
C950        O963   1.269       .  A
C950       C1470   1.486       .  S
O951        C961   1.261       .  A
O951       Al953   1.918       .  S
O952        C965   1.260       .  A
O952       Al962   1.885       .  S
Al953       O963   1.939       .  S
O954        C961   1.257       .  A
O955        C964   1.266       .  A
O955       Al962   1.932       .  S
O957        C964   1.261       .  A
O958       Al962   1.796       .  S
O959        C960   1.252       .  A
C960       C1456   1.507       .  S
C961       C1176   1.492       .  S
C964       C1061   1.478       .  S
C965        O966   1.265       .  A
C965       C1190   1.480       .  S
O967        C982   1.263       .  A
O967       Al975   1.928       .  S
C968        O978   1.261       .  A
C968        O969   1.259       .  A
C968       C1075   1.494       .  S
O969       Al971   1.905       .  S
O970        C972   1.259       .  A
O970       Al971   1.870       .  S
Al971       O979   1.877       .  S
Al971       O981   1.895       .  S
Al971       O980   1.770       .  S
C972        O985   1.267       .  A
C972       C1414   1.477       .  S
O973        C983   1.263       .  A
O973       Al975   1.915       .  S
O974        C987   1.260       .  A
O974       Al984   1.878       .  S
Al975       O988   1.915       .  S
Al975       O985   1.938       .  S
Al975       O980   1.787       .  S
O976        C983   1.257       .  A
O976       Al984   1.892       .  S
O977        C986   1.265       .  A
O977       Al984   1.932       .  S
O978       Al984   1.914       .  S
O979        C986   1.258       .  A
O980       Al984   1.786       .  S
O981        C982   1.255       .  A
C982       C1400   1.497       .  S
C983       C1117   1.478       .  S
C986       C1064   1.481       .  S
C987        O988   1.264       .  A
C987       C1134   1.500       .  S
O989       C1004   1.265       .  A
C990       O1000   1.262       .  A
C990        O991   1.261       .  A
C990       C1355   1.489       .  S
O992        C994   1.258       .  A
Al993      O1001   1.895       .  S
Al993      O1003   1.888       .  S
Al993      O1002   1.786       .  S
C994       O1007   1.261       .  A
C994       C1162   1.501       .  S
O995       C1005   1.262       .  A
O995       Al997   1.918       .  S
O996       C1009   1.260       .  A
O996      Al1006   1.898   1_556  S
Al997      O1007   1.915       .  S
O998       C1005   1.258       .  A
O999       C1008   1.259       .  A
O999      Al1006   1.904   1_556  S
O1001      C1008   1.257       .  A
O1002     Al1006   1.793   1_556  S
O1003      C1004   1.261       .  A
C1004      C1148   1.489       .  S
C1005      C1047   1.487       .  S
C1008      C1344   1.490       .  S
C1009      O1010   1.261       .  A
C1009      C1033   1.492       .  S
O1011      C1026   1.261       .  A
O1011     Al1019   1.909       .  S
C1012      O1022   1.259       .  A
C1012      O1013   1.261       .  A
C1012      C1327   1.500       .  S
O1013     Al1015   1.914       .  S
O1014      C1016   1.261       .  A
O1014     Al1015   1.875       .  S
Al1015     O1023   1.894       .  S
Al1015     O1025   1.895       .  S
Al1015     O1024   1.777       .  S
C1016      O1029   1.262       .  A
C1016      C1106   1.473       .  S
O1017      C1027   1.260       .  A
O1017     Al1019   1.900       .  S
O1018      C1031   1.259       .  A
O1018     Al1028   1.888       .  S
Al1019     O1032   1.912       .  S
Al1019     O1029   1.916       .  S
Al1019     O1024   1.795       .  S
O1020      C1027   1.260       .  A
O1020     Al1028   1.894       .  S
O1021      C1030   1.262       .  A
O1021     Al1028   1.915       .  S
O1022     Al1028   1.900       .  S
O1023      C1030   1.261       .  A
O1024     Al1028   1.784       .  S
O1025      C1026   1.258       .  A
C1026      C1092   1.496       .  S
C1027      C1050   1.494       .  S
C1030      C1313   1.496       .  S
C1031      O1032   1.262       .  A
C1031      C1036   1.482       .  S
C1033      C1034   1.419       .  A
C1033      C1038   1.417       .  A
C1034      C1035   1.409       .  A
C1034      C1039   1.453       .  S
C1035      C1036   1.410       .  A
C1035      C1042   1.452       .  S
C1036      C1037   1.413       .  A
C1037      C1038   1.412       .  A
C1037      C1040   1.452       .  S
C1038      C1041   1.451       .  S
C1039      N1046   1.157       .  T
C1040      N1045   1.157       .  T
C1041      N1043   1.157       .  T
C1042      N1044   1.157       .  T
C1047      C1048   1.411       .  A
C1047      C1052   1.414       .  A
C1048      C1049   1.407       .  A
C1048      C1053   1.449       .  S
C1049      C1050   1.417       .  A
C1049      C1056   1.454       .  S
C1050      C1051   1.419       .  A
C1051      C1052   1.415       .  A
C1051      C1054   1.450       .  S
C1052      C1055   1.452       .  S
C1053      N1060   1.156       .  T
C1054      N1059   1.158       .  T
C1056      N1058   1.157       .  T
C1061      C1062   1.411       .  A
C1061      C1066   1.412       .  A
C1062      C1063   1.414       .  A
C1062      C1067   1.448       .  S
C1063      C1064   1.413       .  A
C1063      C1070   1.451       .  S
C1064      C1065   1.412       .  A
C1065      C1066   1.406       .  A
C1065      C1068   1.453       .  S
C1066      C1069   1.451       .  S
C1067      N1074   1.157       .  T
C1068      N1073   1.157       .  T
C1070      N1072   1.158       .  T
C1075      C1076   1.415       .  A
C1075      C1080   1.416       .  A
C1076      C1077   1.417       .  A
C1076      C1081   1.451       .  S
C1077      C1078   1.419       .  A
C1077      C1084   1.451       .  S
C1078      C1079   1.421       .  A
C1079      C1080   1.407       .  A
C1079      C1082   1.455       .  S
C1080      C1083   1.454       .  S
C1081      N1088   1.157       .  T
C1082      N1087   1.158       .  T
C1083      N1085   1.157       .  T
C1084      N1086   1.157       .  T
C1089      C1090   1.407       .  A
C1089      C1094   1.409   1_545  A
C1090      C1091   1.410       .  A
C1090      C1095   1.452       .  S
C1091      C1092   1.422   1_545  A
C1091      C1098   1.453       .  S
C1092      C1093   1.418       .  A
C1093      C1094   1.413       .  A
C1093      C1096   1.451       .  S
C1094      C1097   1.451       .  S
C1095      N1102   1.157       .  T
C1096      N1101   1.157       .  T
C1097      N1099   1.157       .  T
C1098      N1100   1.158       .  T
C1103      C1104   1.409       .  A
C1103      C1108   1.411   1_545  A
C1104      C1105   1.412   1_545  A
C1104      C1109   1.449       .  S
C1105      C1106   1.414       .  A
C1105      C1112   1.450       .  S
C1106      C1107   1.408       .  A
C1107      C1108   1.399       .  A
C1107      C1110   1.450       .  S
C1108      C1111   1.453       .  S
C1109      N1116   1.157       .  T
C1110      N1115   1.156       .  T
C1112      N1114   1.158   1_565  T
C1117      C1118   1.411       .  A
C1117      C1122   1.413       .  A
C1118      C1119   1.412       .  A
C1118      C1123   1.452       .  S
C1119      C1120   1.413       .  A
C1119      C1126   1.450       .  S
C1120      C1121   1.410       .  A
C1121      C1122   1.410       .  A
C1121      C1124   1.450       .  S
C1122      C1125   1.450       .  S
C1123      N1130   1.157       .  T
C1124      N1129   1.157       .  T
C1125      N1127   1.157       .  T
C1131      C1132   1.412       .  A
C1131      C1136   1.412       .  A
C1132      C1133   1.412       .  A
C1132      C1137   1.453       .  S
C1133      C1134   1.423       .  A
C1133      C1140   1.453       .  S
C1134      C1135   1.422       .  A
C1135      C1136   1.408       .  A
C1135      C1138   1.453       .  S
C1136      C1139   1.454       .  S
C1137      N1144   1.157       .  T
C1138      N1143   1.157       .  T
C1139      N1141   1.157       .  T
C1140      N1142   1.158       .  T
C1145      C1146   1.421       .  A
C1145      C1150   1.425   1_655  A
C1146      C1147   1.417       .  A
C1146      C1151   1.450       .  S
C1147      C1148   1.414   1_655  A
C1147      C1154   1.452       .  S
C1148      C1149   1.409       .  A
C1149      C1150   1.410       .  A
C1149      C1152   1.452       .  S
C1150      C1153   1.454       .  S
C1151      N1158   1.158       .  T
C1152      N1157   1.157       .  T
C1153      N1155   1.158       .  T
C1159      C1160   1.408       .  A
C1159      C1164   1.415       .  A
C1160      C1161   1.410       .  A
C1160      C1165   1.449       .  S
C1161      C1162   1.421   1_655  A
C1161      C1168   1.453       .  S
C1162      C1163   1.419       .  A
C1163      C1164   1.418   1_455  A
C1163      C1166   1.451       .  S
C1164      C1167   1.451   1_655  S
C1165      N1172   1.155       .  T
C1166      N1171   1.157       .  T
C1167      N1169   1.158       .  T
C1168      N1170   1.158       .  T
C1173      C1174   1.425       .  A
C1173      C1178   1.424       .  A
C1174      C1175   1.411       .  A
C1174      C1179   1.455       .  S
C1175      C1176   1.410       .  A
C1175      C1182   1.449       .  S
C1176      C1177   1.411       .  A
C1177      C1178   1.420       .  A
C1177      C1180   1.451       .  S
C1178      C1181   1.451       .  S
C1179      N1186   1.158       .  T
C1180      N1185   1.157       .  T
C1181      N1183   1.158       .  T
C1182      N1184   1.156       .  T
C1187      C1188   1.413       .  A
C1187      C1192   1.412       .  A
C1188      C1189   1.412       .  A
C1188      C1193   1.450       .  S
C1189      C1190   1.409       .  A
C1189      C1196   1.450       .  S
C1190      C1191   1.413       .  A
C1191      C1192   1.412       .  A
C1191      C1194   1.451       .  S
C1192      C1195   1.451       .  S
C1193      N1200   1.157       .  T
C1195      N1197   1.157       .  T
C1196      N1198   1.157       .  T
C1201      C1202   1.422       .  A
C1201      C1206   1.417       .  A
C1202      C1203   1.412       .  A
C1202      C1207   1.453       .  S
C1203      C1204   1.409       .  A
C1203      C1210   1.451       .  S
C1204      C1205   1.411       .  A
C1205      C1206   1.408       .  A
C1205      C1208   1.454       .  S
C1206      C1209   1.449       .  S
C1207      N1214   1.157       .  T
C1208      N1213   1.157       .  T
C1209      N1211   1.156       .  T
C1210      N1212   1.157       .  T
C1215      C1216   1.423       .  A
C1215      C1220   1.421       .  A
C1216      C1217   1.413       .  A
C1216      C1221   1.453       .  S
C1217      C1218   1.409       .  A
C1217      C1224   1.452       .  S
C1218      C1219   1.409       .  A
C1219      C1220   1.415       .  A
C1219      C1222   1.452       .  S
C1220      C1223   1.448       .  S
C1221      N1228   1.158       .  T
C1223      N1225   1.156       .  T
C1224      N1226   1.157       .  T
C1229      C1230   1.419       .  A
C1229      C1234   1.419       .  A
C1230      C1231   1.416       .  A
C1230      C1235   1.450       .  S
C1231      C1232   1.415       .  A
C1231      C1238   1.451       .  S
C1232      C1233   1.412       .  A
C1233      C1234   1.403       .  A
C1233      C1236   1.454       .  S
C1234      C1237   1.453       .  S
C1235      N1242   1.157       .  T
C1236      N1241   1.157       .  T
C1237      N1239   1.157       .  T
C1238      N1240   1.158       .  T
C1243      C1244   1.415       .  A
C1243      C1248   1.416       .  A
C1244      C1245   1.421       .  A
C1244      C1249   1.451       .  S
C1245      C1246   1.424       .  A
C1245      C1252   1.451       .  S
C1246      C1247   1.426       .  A
C1247      C1248   1.409       .  A
C1247      C1250   1.456       .  S
C1248      C1251   1.454       .  S
C1249      N1256   1.157       .  T
C1250      N1255   1.158       .  T
C1251      N1253   1.157       .  T
C1252      N1254   1.158       .  T
C1257      C1258   1.418       .  A
C1257      C1262   1.415       .  A
C1258      C1259   1.412       .  A
C1258      C1263   1.452       .  S
C1259      C1260   1.414       .  A
C1259      C1266   1.450       .  S
C1260      C1261   1.411       .  A
C1261      C1262   1.405       .  A
C1261      C1264   1.450       .  S
C1262      C1265   1.453       .  S
C1263      N1270   1.158       .  T
C1264      N1269   1.157       .  T
C1265      N1267   1.157       .  T
C1266      N1268   1.157       .  T
C1271      C1272   1.409       .  A
C1271      C1276   1.412       .  A
C1272      C1273   1.409       .  A
C1272      C1277   1.453       .  S
C1273      C1274   1.415       .  A
C1273      C1280   1.449       .  S
C1274      C1275   1.412       .  A
C1275      C1276   1.412       .  A
C1275      C1278   1.452       .  S
C1276      C1279   1.447       .  S
C1277      N1284   1.157       .  T
C1278      N1283   1.158       .  T
C1280      N1282   1.156       .  T
C1285      C1286   1.417   1_545  A
C1285      C1290   1.415       .  A
C1286      C1287   1.411       .  A
C1286      C1291   1.452       .  S
C1287      C1288   1.409       .  A
C1287      C1294   1.448       .  S
C1288      C1289   1.412       .  A
C1289      C1290   1.414   1_565  A
C1289      C1292   1.450   1_565  S
C1290      C1293   1.450       .  S
C1291      N1298   1.157       .  T
C1292      N1297   1.157       .  T
C1293      N1295   1.157       .  T
C1294      N1296   1.156       .  T
C1299      C1300   1.411       .  A
C1299      C1304   1.416   1_545  A
C1300      C1301   1.398   1_545  A
C1300      C1305   1.452       .  S
C1301      C1302   1.413       .  A
C1301      C1308   1.455   1_565  S
C1302      C1303   1.409       .  A
C1303      C1304   1.413       .  A
C1303      C1306   1.449       .  S
C1304      C1307   1.450       .  S
C1305      N1312   1.156       .  T
C1306      N1311   1.157       .  T
C1307      N1309   1.157       .  T
C1308      N1310   1.158       .  T
C1313      C1314   1.419       .  A
C1313      C1318   1.415       .  A
C1314      C1315   1.413       .  A
C1314      C1319   1.453       .  S
C1315      C1316   1.421       .  A
C1315      C1322   1.453       .  S
C1316      C1317   1.427       .  A
C1317      C1318   1.409       .  A
C1317      C1320   1.454       .  S
C1318      C1321   1.455       .  S
C1319      N1326   1.158       .  T
C1321      N1323   1.157       .  T
C1322      N1324   1.157       .  T
C1327      C1328   1.421       .  A
C1327      C1332   1.422       .  A
C1328      C1329   1.414       .  A
C1328      C1333   1.451       .  S
C1329      C1330   1.409       .  A
C1329      C1336   1.450       .  S
C1330      C1331   1.408       .  A
C1331      C1332   1.411       .  A
C1331      C1334   1.452       .  S
C1332      C1335   1.452       .  S
C1333      N1340   1.158       .  T
C1334      N1339   1.157       .  T
C1335      N1337   1.157       .  T
C1336      N1338   1.157       .  T
C1341      C1342   1.413       .  A
C1341      C1346   1.409       .  A
C1342      C1343   1.413       .  A
C1342      C1347   1.451       .  S
C1343      C1344   1.416       .  A
C1343      C1350   1.451       .  S
C1344      C1345   1.419       .  A
C1345      C1346   1.407       .  A
C1345      C1348   1.452       .  S
C1346      C1349   1.454       .  S
C1347      N1354   1.158       .  T
C1349      N1351   1.157       .  T
C1350      N1352   1.157       .  T
C1355      C1356   1.416       .  A
C1355      C1360   1.411       .  A
C1356      C1357   1.415       .  A
C1356      C1361   1.452       .  S
C1357      C1358   1.420       .  A
C1357      C1364   1.452       .  S
C1358      C1359   1.427       .  A
C1359      C1360   1.407       .  A
C1359      C1362   1.455       .  S
C1360      C1363   1.454       .  S
C1361      N1368   1.158       .  T
C1362      N1367   1.158       .  T
C1363      N1365   1.157       .  T
C1364      N1366   1.157       .  T
C1369      C1370   1.418       .  A
C1369      C1374   1.423       .  A
C1370      C1371   1.420   1_655  A
C1370      C1375   1.450       .  S
C1371      C1372   1.415       .  A
C1371      C1378   1.450       .  S
C1372      C1373   1.418       .  A
C1373      C1374   1.405   1_455  A
C1373      C1376   1.456       .  S
C1374      C1377   1.457       .  S
C1375      N1382   1.157       .  T
C1376      N1381   1.158       .  T
C1377      N1379   1.158       .  T
C1378      N1380   1.157       .  T
C1383      C1384   1.417       .  A
C1383      C1388   1.419   1_455  A
C1384      C1385   1.403   1_455  A
C1384      C1389   1.452       .  S
C1385      C1386   1.411       .  A
C1385      C1392   1.453       .  S
C1386      C1387   1.410       .  A
C1387      C1388   1.417       .  A
C1387      C1390   1.450       .  S
C1388      C1391   1.450       .  S
C1389      N1396   1.157       .  T
C1390      N1395   1.158       .  T
C1391      N1393   1.157       .  T
C1392      N1394   1.157       .  T
C1397      C1398   1.420       .  A
C1397      C1402   1.417       .  A
C1398      C1399   1.404       .  A
C1398      C1403   1.456       .  S
C1399      C1400   1.418       .  A
C1399      C1406   1.455       .  S
C1400      C1401   1.417       .  A
C1401      C1402   1.421       .  A
C1401      C1404   1.450       .  S
C1402      C1405   1.450       .  S
C1403      N1410   1.158       .  T
C1404      N1409   1.157       .  T
C1405      N1407   1.157       .  T
C1406      N1408   1.157       .  T
C1411      C1412   1.415       .  A
C1411      C1416   1.419       .  A
C1412      C1413   1.403       .  A
C1412      C1417   1.450       .  S
C1413      C1414   1.410       .  A
C1413      C1420   1.454       .  S
C1414      C1415   1.408       .  A
C1415      C1416   1.415       .  A
C1415      C1418   1.449       .  S
C1416      C1419   1.450       .  S
C1417      N1424   1.156       .  T
C1418      N1423   1.157       .  T
C1420      N1422   1.157       .  T
C1425      C1426   1.416       .  A
C1425      C1430   1.418       .  A
C1426      C1427   1.407       .  A
C1426      C1431   1.449       .  S
C1427      C1428   1.412       .  A
C1427      C1434   1.455       .  S
C1428      C1429   1.414       .  A
C1429      C1430   1.418       .  A
C1429      C1432   1.450       .  S
C1430      C1433   1.451       .  S
C1431      N1438   1.156       .  T
C1432      N1437   1.157       .  T
C1433      N1435   1.157       .  T
C1434      N1436   1.157       .  T
C1439      C1440   1.416       .  A
C1439      C1444   1.415       .  A
C1440      C1441   1.414       .  A
C1440      C1445   1.450       .  S
C1441      C1442   1.411       .  A
C1441      C1448   1.451       .  S
C1442      C1443   1.409       .  A
C1443      C1444   1.410       .  A
C1443      C1446   1.447       .  S
C1444      C1447   1.453       .  S
C1445      N1452   1.157       .  T
C1446      N1451   1.156       .  T
C1448      N1450   1.157       .  T
C1453      C1454   1.411       .  A
C1453      C1458   1.406       .  A
C1454      C1455   1.420       .  A
C1454      C1459   1.449       .  S
C1455      C1456   1.418       .  A
C1455      C1462   1.447       .  S
C1456      C1457   1.425       .  A
C1457      C1458   1.409       .  A
C1457      C1460   1.454       .  S
C1458      C1461   1.452       .  S
C1459      N1466   1.157       .  T
C1460      N1465   1.158       .  T
C1461      N1463   1.157       .  T
C1462      N1464   1.157       .  T
C1467      C1468   1.413       .  A
C1467      C1472   1.412       .  A
C1468      C1469   1.417       .  A
C1468      C1473   1.449       .  S
C1469      C1470   1.415       .  A
C1469      C1476   1.450       .  S
C1470      C1471   1.412       .  A
C1471      C1472   1.407       .  A
C1471      C1474   1.449       .  S
C1472      C1475   1.453       .  S
C1473      N1480   1.157       .  T
C1474      N1479   1.156       .  T
C1475      N1477   1.157       .  T
C1481      C1482   1.421       .  A
C1481      C1486   1.417       .  A
C1482      C1483   1.407       .  A
C1482      C1487   1.453       .  S
C1483      C1484   1.405       .  A
C1483      C1490   1.453       .  S
C1484      C1485   1.410       .  A
C1485      C1486   1.414       .  A
C1485      C1488   1.451       .  S
C1486      C1489   1.451       .  S
C1487      N1494   1.158       .  T
C1488      N1493   1.157       .  T
C1489      N1491   1.158       .  T
C1490      N1492   1.157       .  T
C1495      C1496   1.415       .  A
C1495      C1500   1.418       .  A
C1496      C1497   1.409       .  A
C1496      C1501   1.451       .  S
C1497      C1498   1.412       .  A
C1497      C1504   1.453       .  S
C1498      C1499   1.411       .  A
C1499      C1500   1.414       .  A
C1499      C1502   1.451       .  S
C1500      C1503   1.451       .  S
C1501      N1508   1.157       .  T
C1502      N1507   1.157       .  T
C1504      N1506   1.157       .  T
C1509      C1510   1.419       .  A
C1509      C1514   1.418       .  A
C1510      C1511   1.411       .  A
C1510      C1515   1.454       .  S
C1511      C1512   1.419       .  A
C1511      C1518   1.454       .  S
C1512      C1513   1.419       .  A
C1513      C1514   1.417       .  A
C1513      C1516   1.451       .  S
C1514      C1517   1.451       .  S
C1515      N1522   1.158       .  T
C1516      N1521   1.157       .  T
C1517      N1519   1.157       .  T
C1518      N1520   1.158       .  T
C1523      C1524   1.406       .  A
C1523      C1528   1.409       .  A
C1524      C1525   1.411       .  A
C1524      C1529   1.451       .  S
C1525      C1526   1.421       .  A
C1525      C1532   1.451       .  S
C1526      C1527   1.421       .  A
C1527      C1528   1.406       .  A
C1527      C1530   1.453       .  S
C1528      C1531   1.454       .  S
C1529      N1536   1.157       .  T
C1530      N1535   1.157       .  T
C1531      N1533   1.157       .  T
