geometry optimzed in LAMMPS
_audit_creation_date              2020-11-30 
_audit_creation_method            'lammps2cif' 
_symmetry_space_group_name_H-M    'P1' 
_symmetry_Int_Tables_number       1 
_symmetry_cell_setting            triclinic 
loop_ 
_symmetry_equiv_pos_as_xyz 
  x,y,z 
_cell_length_a                    148.62467406 
_cell_length_b                    148.25197611763826 
_cell_length_c                    107.15926220593526 
_cell_angle_alpha                 89.99261678711234 
_cell_angle_beta                  89.92975719359099 
_cell_angle_gamma                 119.9237217036176 
loop_ 
_atom_site_label 
_atom_site_type_symbol 
_atom_site_fract_x 
_atom_site_fract_y 
_atom_site_fract_z 
_atom_site_charge 
N1          N  0.03725866  0.44361258  0.45000097    -0.25900
N2          N  0.03308940  0.44966062  0.44930474    -0.33700
C3          C  0.02413859  0.44528242  0.45576352     0.02500
C4          C  0.02260038  0.43606554  0.46091951     0.08500
C5          C  0.03110461  0.43526237  0.45712998    -0.04600
H6          H  0.01935166  0.44879658  0.45710031     0.09200
H7          H  0.03273273  0.42912487  0.45945403     0.10400
Cu8        Cu  0.04031245  0.46426104  0.44107099     0.44200
Cu9        Cu  0.05124648  0.44734502  0.44124029     0.42000
Cu10       Cu  0.06583203  0.47385945  0.42840871     0.43900
N11         N  0.04969753  0.47952889  0.43533273    -0.33300
N12         N  0.05921299  0.48321162  0.43096654    -0.27500
C13         C  0.06344567  0.49351050  0.42892138    -0.03600
C14         C  0.05620680  0.49643102  0.43212774     0.08600
C15         C  0.04759447  0.48733488  0.43614776     0.02400
H16         H  0.07120218  0.49848032  0.42535232     0.10100
H17         H  0.04043261  0.48649285  0.43981108     0.09100
N18         N  0.07022461  0.46262232  0.42647807    -0.34700
N19         N  0.06497300  0.45304628  0.43098296    -0.26900
C20         C  0.06967147  0.44771449  0.42732564    -0.02100
C21         C  0.07831717  0.45424262  0.42020489     0.06500
C22         C  0.07839075  0.46362619  0.41991262     0.04600
H23         H  0.06688826  0.43963616  0.42955586     0.09700
H24         H  0.08371284  0.47056150  0.41481112     0.08500
N25         N  0.03673049  0.59777493  0.45082935    -0.25900
N26         N  0.03569959  0.58884145  0.45469001    -0.33700
C27         C  0.02819050  0.58465735  0.46334571     0.02500
C28         C  0.02418138  0.59120100  0.46508334     0.08500
C29         C  0.02973357  0.59944846  0.45691740    -0.04600
H30         H  0.02559588  0.57719172  0.46773120     0.09200
H31         H  0.02877225  0.60613521  0.45551713     0.10400
Cu32       Cu  0.04388108  0.58210850  0.44769453     0.44200
Cu33       Cu  0.04778347  0.60696429  0.43745083     0.42000
Cu34       Cu  0.06229736  0.59492256  0.42366873     0.43900
N35         N  0.05184972  0.57565565  0.43934819    -0.33300
N36         N  0.05864965  0.58023958  0.43027209    -0.27500
C37         C  0.06232638  0.57394672  0.42674368    -0.03600
C38         C  0.05761099  0.56499676  0.43404794     0.08600
C39         C  0.05099606  0.56639397  0.44188406     0.02400
H40         H  0.06807605  0.57580595  0.41951946     0.10100
H41         H  0.04576155  0.56099207  0.44877608     0.09100
N42         N  0.06495515  0.60983272  0.41958714    -0.34700
N43         N  0.05989950  0.61421434  0.42452877    -0.26900
C44         C  0.06405853  0.62401529  0.42012484    -0.02100
C45         C  0.07213582  0.62594317  0.41201977     0.06500
C46         C  0.07238449  0.61670590  0.41191308     0.04600
H47         H  0.06155813  0.62941576  0.42293779     0.09700
H48         H  0.07757322  0.61502809  0.40664020     0.08500
N49         N  0.94511860  0.55011435  0.52698145    -0.25900
N50         N  0.94733552  0.54283606  0.52370174    -0.33700
C51         C  0.95561272  0.54696579  0.51610287     0.02500
C52         C  0.95891409  0.55738618  0.51455331     0.08500
C53         C  0.95214596  0.55919613  0.52163596    -0.04600
H54         H  0.95914742  0.54273472  0.51224959     0.09200
H55         H  0.95227484  0.56650284  0.52273731     0.10400
Cu56       Cu  0.93987150  0.52770326  0.53012690     0.44200
Cu57       Cu  0.93246004  0.54697638  0.53847266     0.42000
Cu58       Cu  0.91941440  0.52033119  0.55143036     0.43900
N59         N  0.93256407  0.51326224  0.53853391    -0.33300
N60         N  0.92484844  0.51042966  0.54650963    -0.27500
C61         C  0.92177540  0.50073072  0.55057485    -0.03600
C62         C  0.92795682  0.49734601  0.54492434     0.08600
C63         C  0.93470410  0.50551124  0.53733753     0.02400
H64         H  0.91568369  0.49657954  0.55735898     0.10100
H65         H  0.94070849  0.50580822  0.53134844     0.09100
N66         N  0.91484276  0.53120656  0.55464421    -0.34700
N67         N  0.91929100  0.54073891  0.54998600    -0.26900
C68         C  0.91392501  0.54534409  0.55391200    -0.02100
C69         C  0.90572050  0.53835382  0.56137510     0.06500
C70         C  0.90665655  0.52952761  0.56163205     0.04600
H71         H  0.91578528  0.55313629  0.55135015     0.09700
H72         H  0.90183584  0.52238350  0.56666199     0.08500
N73         N  0.94974307  0.39736971  0.53350078    -0.25900
N74         N  0.95273599  0.40737805  0.53306913    -0.33700
C75         C  0.96144697  0.41243094  0.52630276     0.02500
C76         C  0.96428242  0.40535865  0.52221951     0.08500
C77         C  0.95660536  0.39580267  0.52688646    -0.04600
H78         H  0.96529942  0.42067059  0.52429588     0.09200
H79         H  0.95610713  0.38833255  0.52568678     0.10400
Cu80       Cu  0.94498701  0.41406200  0.54129046     0.44200
Cu81       Cu  0.93635753  0.38690677  0.54341514     0.42000
Cu82       Cu  0.92171427  0.39898902  0.55775325     0.43900
N83         N  0.93636127  0.42024715  0.54829550    -0.33300
N84         N  0.92751254  0.41474486  0.55431639    -0.27500
C85         C  0.92340170  0.42088934  0.55666572    -0.03600
C86         C  0.93001659  0.43070099  0.55173306     0.08600
C87         C  0.93817985  0.42996865  0.54663189     0.02400
H88         H  0.91595844  0.41828089  0.56108128     0.10100
H89         H  0.94487272  0.43598131  0.54177189     0.09100
N90         N  0.91795115  0.38351312  0.55963358    -0.34700
N91         N  0.92300185  0.37914708  0.55460441    -0.26900
C92         C  0.91828304  0.36907779  0.55815121    -0.02100
C93         C  0.90987348  0.36698682  0.56575141     0.06500
C94         C  0.90997463  0.37636656  0.56645156     0.04600
H95         H  0.92080633  0.36368777  0.55534550     0.09700
H96         H  0.90480311  0.37801879  0.57182408     0.08500
N97         N  0.81933225  0.55695435  0.63140283    -0.25900
N98         N  0.81886147  0.55969801  0.64300167    -0.33700
C99         C  0.81051559  0.56084195  0.64436026     0.02500
C100        C  0.80535745  0.55870477  0.63307491     0.08500
C101        C  0.81117270  0.55623887  0.62503441    -0.04600
H102        H  0.80809163  0.56255086  0.65313418     0.09200
H103        H  0.80951749  0.55393285  0.61536667     0.10400
Cu104      Cu  0.82862219  0.56046151  0.65704967     0.44200
Cu105      Cu  0.83087525  0.55375450  0.62554443     0.42000
Cu106      Cu  0.84705990  0.55243702  0.65114629     0.43900
N107        N  0.83701620  0.55853668  0.67097064    -0.33300
N108        N  0.84374105  0.55533627  0.66902034    -0.27500
C109        C  0.84725924  0.55412918  0.68012735    -0.03600
C110        C  0.84249050  0.55675439  0.68946953     0.08600
C111        C  0.83604259  0.55947601  0.68326314     0.02400
H112        H  0.85277665  0.55146339  0.68128883     0.10100
H113        H  0.83067633  0.56155130  0.68736247     0.09100
N114        N  0.84877527  0.55025537  0.63233565    -0.34700
N115        N  0.84315765  0.55082922  0.62311306    -0.26900
C116        C  0.84670615  0.54923251  0.61222279    -0.02100
C117        C  0.85487904  0.54749994  0.61473526     0.06500
C118        C  0.85594852  0.54823146  0.62757697     0.04600
H119        H  0.84350726  0.54924441  0.60318427     0.09700
H120        H  0.86168046  0.54758092  0.63308401     0.08500
N121        N  0.72195951  0.55587347  0.63348215    -0.25900
N122        N  0.72332700  0.55402927  0.64519082    -0.33700
C123        C  0.73157472  0.55266024  0.64589569     0.02500
C124        C  0.73572151  0.55371856  0.63408218     0.08500
C125        C  0.72946411  0.55583055  0.62639838    -0.04600
H126        H  0.73456038  0.55137083  0.65449076     0.09200
H127        H  0.73028065  0.55719848  0.61645218     0.10400
Cu128      Cu  0.71466721  0.55426383  0.66013439     0.44200
Cu129      Cu  0.70968300  0.55812553  0.62823096     0.42000
Cu130      Cu  0.69460381  0.56004464  0.65481748     0.43900
N131        N  0.70677343  0.55655353  0.67452523    -0.33300
N132        N  0.69951329  0.55906521  0.67271374    -0.27500
C133        C  0.69622308  0.56046437  0.68390393    -0.03600
C134        C  0.70165498  0.55864468  0.69317694     0.08600
C135        C  0.70827595  0.55620264  0.68683030     0.02400
H136        H  0.69023945  0.56250077  0.68518817     0.10100
H137        H  0.71394667  0.55451950  0.69083847     0.09100
N138        N  0.69054177  0.55918469  0.63606226    -0.34700
N139        N  0.69590227  0.55858512  0.62653297    -0.26900
C140        C  0.69063247  0.55759655  0.61590909    -0.02100
C141        C  0.68148789  0.55748665  0.61888416     0.06500
C142        C  0.68174845  0.55854737  0.63174549     0.04600
H143        H  0.69308173  0.55660028  0.60677560     0.09700
H144        H  0.67593266  0.55874293  0.63759827     0.08500
N145        N  0.81581313  0.55099404  0.84198450    -0.25900
N146        N  0.81176125  0.54776679  0.83077023    -0.33700
C147        C  0.80204303  0.54621372  0.83061750     0.02500
C148        C  0.79977930  0.54862067  0.84226121     0.08500
C149        C  0.80872926  0.55166166  0.84923676    -0.04600
H150        H  0.79717429  0.54399158  0.82242235     0.09200
H151        H  0.81003886  0.55426728  0.85881632     0.10400
Cu152      Cu  0.81978618  0.54667036  0.81554157     0.44200
Cu153      Cu  0.83096405  0.55455048  0.84664050     0.42000
Cu154      Cu  0.84623221  0.55359024  0.82057503     0.43900
N155        N  0.82979845  0.54813958  0.80119283    -0.33300
N156        N  0.83963006  0.55093625  0.80305944    -0.27500
C157        C  0.84431885  0.55201990  0.79198085    -0.03600
C158        C  0.83705667  0.54974549  0.78266290     0.08600
C159        C  0.82792434  0.54729528  0.78885104     0.02400
H160        H  0.85241928  0.55437477  0.79082407     0.10100
H161        H  0.82058702  0.54546690  0.78469970     0.09100
N162        N  0.85130960  0.55609260  0.83884450    -0.34700
N163        N  0.84596970  0.55664653  0.84839074    -0.26900
C164        C  0.85151081  0.55805105  0.85889200    -0.02100
C165        C  0.86076572  0.55832376  0.85581654     0.06500
C166        C  0.86026745  0.55703658  0.84297423     0.04600
H167        H  0.84887326  0.55867503  0.86807874     0.09700
H168        H  0.86577145  0.55634669  0.83702724     0.08500
N169        N  0.72220138  0.55730999  0.84575954    -0.25900
N170        N  0.72627500  0.56073286  0.83458954    -0.33700
C171        C  0.73532142  0.56082475  0.83369325     0.02500
C172        C  0.73715903  0.55727806  0.84479563     0.08500
C173        C  0.72862234  0.55504418  0.85225903    -0.04600
H174        H  0.74006605  0.56301943  0.82536963     0.09200
H175        H  0.72721972  0.55206604  0.86169303     0.10400
Cu176      Cu  0.71924692  0.56428417  0.82026628     0.44200
Cu177      Cu  0.70798787  0.55595861  0.85108038     0.42000
Cu178      Cu  0.69368547  0.55941833  0.82488185     0.43900
N179        N  0.71028172  0.56466346  0.80576097    -0.33300
N180        N  0.70057118  0.56242683  0.80730178    -0.27500
C181        C  0.69639744  0.56206963  0.79602452    -0.03600
C182        C  0.70391046  0.56427243  0.78696714     0.08600
C183        C  0.71261499  0.56589878  0.79352735     0.02400
H184        H  0.68844827  0.56015353  0.79452159     0.10100
H185        H  0.71991544  0.56728160  0.78965519     0.09100
N186        N  0.68869012  0.55677131  0.84337964    -0.34700
N187        N  0.69374460  0.55559616  0.85283724    -0.26900
C188        C  0.68814245  0.55403545  0.86335310    -0.02100
C189        C  0.67911113  0.55416108  0.86036225     0.06500
C190        C  0.67978903  0.55594653  0.84761647     0.04600
H191        H  0.69037703  0.55267569  0.87244201     0.09700
H192        H  0.67425660  0.55668566  0.84180464     0.08500
N193        N  0.26254491  0.82593895  0.34406978    -0.25900
N194        N  0.25985959  0.82414991  0.33217732    -0.33700
C195        C  0.25055984  0.81546597  0.33120676     0.02500
C196        C  0.24708095  0.81147089  0.34302907     0.08500
C197        C  0.25488056  0.81837523  0.35099934    -0.04600
H198        H  0.24659774  0.81233318  0.32247164     0.09200
H199        H  0.25507377  0.81781965  0.36103756     0.10400
Cu200      Cu  0.26888397  0.83309391  0.31735295     0.44200
Cu201      Cu  0.27680907  0.83853807  0.34987543     0.42000
Cu202      Cu  0.29480372  0.85247867  0.32386623     0.43900
N203        N  0.27950076  0.84135169  0.30338133    -0.33300
N204        N  0.28930178  0.84821547  0.30574970    -0.27500
C205        C  0.29450356  0.85149382  0.29487292    -0.03600
C206        C  0.28758491  0.84652185  0.28519249     0.08600
C207        C  0.27813983  0.84017494  0.29095277     0.02400
H208        H  0.30271283  0.85701505  0.29407252     0.10100
H209        H  0.27092316  0.83474390  0.28646451     0.09100
N210        N  0.29819688  0.85623622  0.34262935    -0.34700
N211        N  0.29176250  0.85149003  0.35204871    -0.26900
C212        C  0.29653979  0.85626280  0.36276770    -0.02100
C213        C  0.30646099  0.86430202  0.35994859     0.06500
C214        C  0.30718218  0.86401656  0.34709613     0.04600
H215        H  0.29312314  0.85392492  0.37194675     0.09700
H216        H  0.31373661  0.86918956  0.34134639     0.08500
N217        N  0.16233076  0.73236874  0.34771883    -0.25900
N218        N  0.16346003  0.73611295  0.33626785    -0.33700
C219        C  0.17192282  0.74561263  0.33575065     0.02500
C220        C  0.17653631  0.74805513  0.34737290     0.08500
C221        C  0.17028813  0.73942975  0.35477281    -0.04600
H222        H  0.17478797  0.75021846  0.32734389     0.09200
H223        H  0.17145070  0.73837488  0.36449521     0.10400
Cu224      Cu  0.15445307  0.72788722  0.32116157     0.44200
Cu225      Cu  0.14969220  0.71775343  0.35256039     0.42000
Cu226      Cu  0.13402725  0.70205008  0.32542549     0.43900
N227        N  0.14663335  0.71820589  0.30632531    -0.33300
N228        N  0.13910802  0.70849157  0.30773600    -0.27500
C229        C  0.13589765  0.70417726  0.29635602    -0.03600
C230        C  0.14175669  0.71156333  0.28732997     0.08600
C231        C  0.14844868  0.72036278  0.29410029     0.02400
H232        H  0.12988493  0.69621392  0.29480922     0.10100
H233        H  0.15418034  0.72785982  0.29045940     0.09100
N234        N  0.13028657  0.69790123  0.34412396    -0.34700
N235        N  0.13574956  0.70341919  0.35384666    -0.26900
C236        C  0.13082408  0.69833775  0.36437127    -0.02100
C237        C  0.12183147  0.68915960  0.36117304     0.06500
C238        C  0.12184619  0.68921824  0.34821675     0.04600
H239        H  0.13357180  0.70122111  0.37364903     0.09700
H240        H  0.11626595  0.68327807  0.34210420     0.08500
N241        N  0.26809359  0.82143505  0.13552809    -0.25900
N242        N  0.26742759  0.81800978  0.14705515    -0.33700
C243        C  0.25808721  0.80952109  0.14873346     0.02500
C244        C  0.25244010  0.80747786  0.13777782     0.08500
C245        C  0.25910849  0.81520131  0.12956198    -0.04600
H246        H  0.25558971  0.80527835  0.15743702     0.09200
H247        H  0.25743121  0.81648786  0.12012674     0.10400
Cu248      Cu  0.27855682  0.82568854  0.16063734     0.44200
Cu249      Cu  0.28105709  0.83488019  0.12910800     0.42000
Cu250      Cu  0.29970303  0.85090552  0.15376406     0.43900
N251        N  0.28862156  0.83545459  0.17415004    -0.33300
N252        N  0.29627969  0.84496938  0.17185402    -0.27500
C253        C  0.30054011  0.84965411  0.18279778    -0.03600
C254        C  0.29530700  0.84267307  0.19241755     0.08600
C255        C  0.28781960  0.83377729  0.18651251     0.02400
H256        H  0.30680392  0.85759635  0.18368163     0.10100
H257        H  0.28180304  0.82679547  0.19091042     0.09100
N258        N  0.30120389  0.85466364  0.13484226    -0.34700
N259        N  0.29466185  0.84889773  0.12597060    -0.26900
C260        C  0.29816843  0.85370795  0.11489465    -0.02100
C261        C  0.30729385  0.86299207  0.11690443     0.06500
C262        C  0.30897651  0.86329681  0.12964544     0.04600
H263        H  0.29426370  0.85074070  0.10610071     0.09700
H264        H  0.31546235  0.86928167  0.13477210     0.08500
N265        N  0.16450287  0.73293479  0.13399513    -0.25900
N266        N  0.16540589  0.73673232  0.14537777    -0.33700
C267        C  0.17414346  0.74600223  0.14609939     0.02500
C268        C  0.17911504  0.74818531  0.13468082     0.08500
C269        C  0.17282718  0.73969357  0.12720012    -0.04600
H270        H  0.17690748  0.75062896  0.15451035     0.09200
H271        H  0.17421064  0.73851081  0.11759333     0.10400
Cu272      Cu  0.15550903  0.72880082  0.16001738     0.44200
Cu273      Cu  0.15180829  0.71864035  0.12876159     0.42000
Cu274      Cu  0.13448598  0.70312713  0.15476964     0.43900
N275        N  0.14634614  0.71923827  0.17430805    -0.33300
N276        N  0.13865497  0.70964073  0.17258409    -0.27500
C277        C  0.13468882  0.70536932  0.18381482    -0.03600
C278        C  0.14015992  0.71268426  0.19304051     0.08600
C279        C  0.14749536  0.72135433  0.18657612     0.02400
H280        H  0.12832008  0.69753020  0.18514063     0.10100
H281        H  0.15351352  0.72857594  0.19050029     0.09100
N282        N  0.13197442  0.69881362  0.13596572    -0.34700
N283        N  0.13807178  0.70437702  0.12662816    -0.26900
C284        C  0.13395046  0.69932953  0.11582836    -0.02100
C285        C  0.12486067  0.69011583  0.11845104     0.06500
C286        C  0.12389590  0.69009202  0.13132896     0.04600
H287        H  0.13742435  0.70209968  0.10675127     0.09700
H288        H  0.11767774  0.68423492  0.13694839     0.08500
N289        N  0.43596803  0.04280604  0.53158453    -0.25900
N290        N  0.44245617  0.03924508  0.52993833    -0.33700
C291        C  0.43777029  0.03042268  0.52328640     0.02500
C292        C  0.42783908  0.02827135  0.52046330     0.08500
C293        C  0.42693088  0.03632274  0.52578462    -0.04600
H294        H  0.44141416  0.02598516  0.52048763     0.09200
H295        H  0.42020284  0.03730975  0.52559735     0.10400
Cu296      Cu  0.45765118  0.04665502  0.53594395     0.44200
Cu297      Cu  0.44016229  0.05626002  0.54201464     0.42000
Cu298      Cu  0.46820351  0.07160659  0.54984858     0.43900
N299        N  0.47315083  0.05562481  0.54036262    -0.33300
N300        N  0.47724057  0.06502418  0.54523833    -0.27500
C301        C  0.48752153  0.06889421  0.54667947    -0.03600
C302        C  0.48999730  0.06153760  0.54244135     0.08600
C303        C  0.48064204  0.05322025  0.53856072     0.02400
H304        H  0.49277938  0.07652782  0.55039501     0.10100
H305        H  0.47929579  0.04587754  0.53483231     0.09100
N306        N  0.45702362  0.07525310  0.55550033    -0.34700
N307        N  0.44698188  0.06972604  0.55300171    -0.26900
C308        C  0.44207999  0.07409433  0.55889052    -0.02100
C309        C  0.44937464  0.08278732  0.56540353     0.06500
C310        C  0.45876226  0.08326200  0.56294606     0.04600
H311        H  0.43379110  0.07098501  0.55869131     0.09700
H312        H  0.46631673  0.08896090  0.56629469     0.08500
N313        N  0.59452177  0.04620386  0.52803380    -0.25900
N314        N  0.58431467  0.04187667  0.52853666    -0.33700
C315        C  0.57989271  0.03298864  0.52203967     0.02500
C316        C  0.58762098  0.03151204  0.51708949     0.08500
C317        C  0.59686986  0.04009604  0.52096382    -0.04600
H318        H  0.57161932  0.02806600  0.52079917     0.09200
H319        H  0.60464901  0.04167813  0.51897002     0.10400
Cu320      Cu  0.57641753  0.04819468  0.53709194     0.44200
Cu321      Cu  0.60415140  0.06004297  0.53766912     0.42000
Cu322      Cu  0.58984527  0.07248727  0.55160778     0.43900
N323        N  0.56907730  0.05602116  0.54291978    -0.33300
N324        N  0.57400578  0.06526451  0.54821395    -0.27500
C325        C  0.56723483  0.06867524  0.55003929    -0.03600
C326        C  0.55758269  0.06115936  0.54557850     0.08600
C327        C  0.55910689  0.05326294  0.54114118     0.02400
H328        H  0.56923628  0.07609706  0.55415678     0.10100
H329        H  0.55354195  0.04623956  0.53641020     0.09100
N330        N  0.60543714  0.07732137  0.55439705    -0.34700
N331        N  0.61061032  0.07301513  0.54956212    -0.26900
C332        C  0.62032184  0.07789528  0.55426238    -0.02100
C333        C  0.62127304  0.08556508  0.56248328     0.06500
C334        C  0.61168728  0.08497837  0.56221762     0.04600
H335        H  0.62609034  0.07568499  0.55228540     0.09700
H336        H  0.60930841  0.08964701  0.56749523     0.08500
N337        N  0.54867491  0.95634921  0.44876252    -0.25900
N338        N  0.54156137  0.95900557  0.45108876    -0.33700
C339        C  0.54581518  0.96783197  0.45777149     0.02500
C340        C  0.55611840  0.97094444  0.45990772     0.08500
C341        C  0.55768494  0.96343899  0.45414391    -0.04600
H342        H  0.54165641  0.97165133  0.46096426     0.09200
H343        H  0.56485655  0.96325709  0.45370119     0.10400
Cu344      Cu  0.52629475  0.95082549  0.44522678     0.44200
Cu345      Cu  0.54552142  0.94333882  0.43784088     0.42000
Cu346      Cu  0.51866040  0.92904122  0.42555145     0.43900
N347        N  0.51154852  0.94252862  0.43776227    -0.33300
N348        N  0.50867983  0.93455643  0.43015359    -0.27500
C349        C  0.49881130  0.93110539  0.42650798    -0.03600
C350        C  0.49529526  0.93716927  0.43224717     0.08600
C351        C  0.50361384  0.94433188  0.43928748     0.02400
H352        H  0.49449285  0.92459628  0.42030400     0.10100
H353        H  0.50396342  0.95055231  0.44491777     0.09100
N354        N  0.53001223  0.92504527  0.42214987    -0.34700
N355        N  0.53969575  0.93016939  0.42626834    -0.26900
C356        C  0.54488760  0.92560614  0.42159493    -0.02100
C357        C  0.53812837  0.91717619  0.41428633     0.06500
C358        C  0.52879199  0.91710504  0.41491712     0.04600
H359        H  0.55298696  0.92825452  0.42336313     0.09700
H360        H  0.52168483  0.91188370  0.41008366     0.08500
N361        N  0.39358691  0.95763800  0.44517131    -0.25900
N362        N  0.40375726  0.96233852  0.44354583    -0.33700
C363        C  0.40832115  0.97093215  0.45060938     0.02500
C364        C  0.40078786  0.97171507  0.45736759     0.08500
C365        C  0.39147271  0.96316769  0.45353808    -0.04600
H366        H  0.41663278  0.97601015  0.45108798     0.09200
H367        H  0.38379591  0.96083518  0.45704629     0.10400
Cu368      Cu  0.41173243  0.95624631  0.43413618     0.44200
Cu369      Cu  0.38339791  0.94353578  0.43630339     0.42000
Cu370      Cu  0.39690564  0.93037006  0.42397622     0.43900
N371        N  0.41847159  0.94743929  0.42908805    -0.33300
N372        N  0.41286077  0.93758904  0.42588073    -0.27500
C373        C  0.41912212  0.93353684  0.42446809    -0.03600
C374        C  0.42933758  0.94124934  0.42683806     0.08600
C375        C  0.42850133  0.94999490  0.42969283     0.02400
H376        H  0.41624998  0.92546382  0.42228176     0.10100
H377        H  0.43458995  0.95767419  0.43221849     0.09100
N378        N  0.38127323  0.92517854  0.42138035    -0.34700
N379        N  0.37626805  0.92986395  0.42556518    -0.26900
C380        C  0.36638800  0.92458153  0.42138750    -0.02100
C381        C  0.36514725  0.91615976  0.41433451     0.06500
C382        C  0.37476994  0.91684822  0.41457039     0.04600
H383        H  0.36056288  0.92673667  0.42329915     0.09700
H384        H  0.37701875  0.91186131  0.40976594     0.08500
N385        N  0.43767887  0.04112584  0.94663683    -0.25900
N386        N  0.44421346  0.03753706  0.94738282    -0.33700
C387        C  0.43995942  0.02886219  0.95433174     0.02500
C388        C  0.43025284  0.02680530  0.95821774     0.08500
C389        C  0.42905544  0.03478369  0.95323064    -0.04600
H390        H  0.44378610  0.02448700  0.95660117     0.09200
H391        H  0.42239750  0.03583732  0.95419293     0.10400
Cu392      Cu  0.45884153  0.04445479  0.93950229     0.44200
Cu393      Cu  0.44098114  0.05441311  0.93644985     0.42000
Cu394      Cu  0.46698333  0.06743765  0.92194480     0.43900
N395        N  0.47357282  0.05278589  0.93200203    -0.33300
N396        N  0.47674606  0.06148019  0.92563676    -0.27500
C397        C  0.48677065  0.06531100  0.92243519    -0.03600
C398        C  0.49002244  0.05863355  0.92696198     0.08600
C399        C  0.48142011  0.05077973  0.93297660     0.02400
H400        H  0.49131446  0.07237919  0.91714518     0.10100
H401        H  0.48095629  0.04422361  0.93797469     0.09100
N402        N  0.45586674  0.07189665  0.91948497    -0.34700
N403        N  0.44659937  0.06741299  0.92483904    -0.26900
C404        C  0.44150399  0.07232143  0.92105616    -0.02100
C405        C  0.44782681  0.08018883  0.91284290     0.06500
C406        C  0.45685716  0.07967447  0.91210693     0.04600
H407        H  0.43366340  0.07010742  0.92376916     0.09700
H408        H  0.46367612  0.08459432  0.90660249     0.08500
N409        N  0.59444271  0.04512786  0.94671012    -0.25900
N410        N  0.58427468  0.04082728  0.94552019    -0.33700
C411        C  0.57958732  0.03174638  0.95169393     0.02500
C412        C  0.58711276  0.03017402  0.95714618     0.08500
C413        C  0.59648684  0.03886316  0.95386391    -0.04600
H414        H  0.57126646  0.02684884  0.95257323     0.09200
H415        H  0.60417708  0.04051317  0.95649072     0.10400
Cu416      Cu  0.57692959  0.04774372  0.93670036     0.44200
Cu417      Cu  0.60465646  0.05933124  0.93826223     0.42000
Cu418      Cu  0.59181201  0.07259696  0.92300398     0.43900
N419        N  0.57036806  0.05619905  0.93002916    -0.33300
N420        N  0.57577555  0.06553756  0.92500562    -0.27500
C421        C  0.56929126  0.06920047  0.92243902    -0.03600
C422        C  0.55934451  0.06179784  0.92620604     0.08600
C423        C  0.56037259  0.05365566  0.93088213     0.02400
H424        H  0.57170592  0.07682465  0.91862128     0.10100
H425        H  0.55433540  0.04645147  0.93483616     0.09100
N426        N  0.60753886  0.07730969  0.92176990    -0.34700
N427        N  0.61220121  0.07273253  0.92725200    -0.26900
C428        C  0.62221465  0.07753725  0.92357227    -0.02100
C429        C  0.62389820  0.08541663  0.91529302     0.06500
C430        C  0.61443385  0.08505880  0.91446463     0.04600
H431        H  0.62769095  0.07508523  0.92617142     0.09700
H432        H  0.61258452  0.08988944  0.90868891     0.08500
N433        N  0.54953805  0.95803093  0.03081494    -0.25900
N434        N  0.54237080  0.96074311  0.02946222    -0.33700
C435        C  0.54611140  0.96930925  0.02235092     0.02500
C436        C  0.55621625  0.97231886  0.01899398     0.08500
C437        C  0.55812696  0.96492206  0.02450484    -0.04600
H438        H  0.54162507  0.97287279  0.01954753     0.09200
H439        H  0.56520567  0.96457576  0.02401095     0.10400
Cu440      Cu  0.52761279  0.95280831  0.03685142     0.44200
Cu441      Cu  0.54676279  0.94483453  0.04110986     0.42000
Cu442      Cu  0.52022253  0.93018790  0.05473783     0.43900
N443        N  0.51301341  0.94421136  0.04450058    -0.33300
N444        N  0.51015276  0.93581819  0.05136423    -0.27500
C445        C  0.50018474  0.93197122  0.05488979    -0.03600
C446        C  0.49663921  0.93823757  0.04982492     0.08600
C447        C  0.50499958  0.94591960  0.04333024     0.02400
H448        H  0.49578137  0.92499746  0.06039529     0.10100
H449        H  0.50524954  0.95227620  0.03811982     0.09100
N450        N  0.53174393  0.92624847  0.05686856    -0.34700
N451        N  0.54121741  0.93133430  0.05206327    -0.26900
C452        C  0.54651513  0.92660736  0.05582339    -0.02100
C453        C  0.54010127  0.91822996  0.06342194     0.06500
C454        C  0.53080902  0.91826173  0.06377744     0.04600
H455        H  0.55454940  0.92929352  0.05355633     0.09700
H456        H  0.52384514  0.91290494  0.06878897     0.08500
N457        N  0.39289015  0.95335023  0.02807016    -0.25900
N458        N  0.40292649  0.95676369  0.02670403    -0.33700
C459        C  0.40721973  0.96552667  0.01991719     0.02500
C460        C  0.39954903  0.96775626  0.01675796     0.08500
C461        C  0.39050654  0.95984480  0.02197069    -0.04600
H462        H  0.41535487  0.96995446  0.01745148     0.09200
H463        H  0.38286650  0.95902812  0.02164691     0.10400
Cu464      Cu  0.41077166  0.94983402  0.03415259     0.44200
Cu465      Cu  0.38330308  0.94043197  0.03894764     0.42000
Cu466      Cu  0.39728437  0.92909592  0.05520581     0.43900
N467        N  0.41776353  0.94260008  0.04302238    -0.33300
N468        N  0.41282128  0.93491626  0.05103935    -0.27500
C469        C  0.41942490  0.93190815  0.05534193    -0.03600
C470        C  0.42902495  0.93805944  0.04974169     0.08600
C471        C  0.42762814  0.94472328  0.04195449     0.02400
H472        H  0.41739544  0.92579060  0.06211748     0.10100
H473        H  0.43329273  0.95058873  0.03579874     0.09100
N474        N  0.38161442  0.92406863  0.05719604    -0.34700
N475        N  0.37647008  0.92793978  0.05130295    -0.26900
C476        C  0.36645480  0.92268594  0.05494279    -0.02100
C477        C  0.36528878  0.91521486  0.06357969     0.06500
C478        C  0.37505621  0.91632414  0.06472331     0.04600
H479        H  0.36054887  0.92437784  0.05179181     0.09700
H480        H  0.37726765  0.91180991  0.07056572     0.08500
N481        N  0.81946589  0.26578522  0.63500805    -0.25900
N482        N  0.81557990  0.26468871  0.64636181    -0.33700
C483        C  0.80617834  0.25611847  0.64678770     0.02500
C484        C  0.80395174  0.25150411  0.63513987     0.08500
C485        C  0.81259015  0.25782413  0.62787494    -0.04600
H486        H  0.80147937  0.25326970  0.65511966     0.09200
H487        H  0.81378480  0.25674672  0.61816835     0.10400
Cu488      Cu  0.82331549  0.27428435  0.66120795     0.44200
Cu489      Cu  0.83394573  0.27823648  0.63019047     0.42000
Cu490      Cu  0.84830872  0.29624700  0.65610722     0.43900
N491        N  0.83253221  0.28350651  0.67556655    -0.33300
N492        N  0.84187890  0.29161627  0.67385989    -0.27500
C493        C  0.84603574  0.29560463  0.68509119    -0.03600
C494        C  0.83891150  0.28969077  0.69429894     0.08600
C495        C  0.83045902  0.28208891  0.68783626     0.02400
H496        H  0.85366887  0.30229321  0.68642558     0.10100
H497        H  0.82343392  0.27574487  0.69173971     0.09100
N498        N  0.85284048  0.29875129  0.63741723    -0.34700
N499        N  0.84785764  0.29222784  0.62818095    -0.26900
C500        C  0.85284586  0.29646518  0.61739449    -0.02100
C501        C  0.86136904  0.30617601  0.61988069     0.06500
C502        C  0.86106253  0.30730619  0.63271159     0.04600
H503        H  0.85032461  0.29274040  0.60841017     0.09700
H504        H  0.86618777  0.31402300  0.63824129     0.08500
N505        N  0.72515544  0.16763462  0.63490452    -0.25900
N506        N  0.72870496  0.16874845  0.64643077    -0.33700
C507        C  0.73841059  0.17689975  0.64684916     0.02500
C508        C  0.74110935  0.18121039  0.63503667     0.08500
C509        C  0.73249900  0.17514313  0.62768288    -0.04600
H510        H  0.74290863  0.17987218  0.65529525     0.09200
H511        H  0.73152848  0.17626029  0.61791670     0.10400
Cu512      Cu  0.71971843  0.16033510  0.66152016     0.44200
Cu513      Cu  0.71019038  0.15638261  0.62997774     0.42000
Cu514      Cu  0.69248469  0.14333786  0.65622548     0.43900
N515        N  0.70902680  0.15340162  0.67580093    -0.33300
N516        N  0.69893364  0.14747357  0.67399241    -0.27500
C517        C  0.69412437  0.14483957  0.68517529    -0.03600
C518        C  0.70159673  0.14927010  0.69444741     0.08600
C519        C  0.71093668  0.15464038  0.68811488     0.02400
H520        H  0.68583640  0.14000986  0.68644795     0.10100
H521        H  0.71854800  0.15938370  0.69214223     0.09100
N522        N  0.68850877  0.13984630  0.63750119    -0.34700
N523        N  0.69489144  0.14454243  0.62804353    -0.26900
C524        C  0.68993555  0.14021330  0.61729719    -0.02100
C525        C  0.67995217  0.13237204  0.62008580     0.06500
C526        C  0.67934227  0.13239098  0.63299925     0.04600
H527        H  0.69345283  0.14245359  0.60815822     0.09700
H528        H  0.67271908  0.12738343  0.63873999     0.08500
N529        N  0.82051911  0.27364192  0.84885809    -0.25900
N530        N  0.81929938  0.26961321  0.83756689    -0.33700
C531        C  0.81084678  0.26011444  0.83739212     0.02500
C532        C  0.80639725  0.25797100  0.84911594     0.08500
C533        C  0.81268147  0.26675973  0.85618835    -0.04600
H534        H  0.80799611  0.25523253  0.82920526     0.09200
H535        H  0.81170461  0.26799642  0.86591350     0.10400
Cu536      Cu  0.82856201  0.27719246  0.82242608     0.44200
Cu537      Cu  0.83319062  0.28822184  0.85324737     0.42000
Cu538      Cu  0.84978173  0.30267408  0.82596478     0.43900
N539        N  0.83716673  0.28599903  0.80746037    -0.33300
N540        N  0.84497975  0.29561023  0.80850714    -0.27500
C541        C  0.84858953  0.29933855  0.79697649    -0.03600
C542        C  0.84274700  0.29162018  0.78830337     0.08600
C543        C  0.83557593  0.28331077  0.79537196     0.02400
H544        H  0.85498537  0.30705822  0.79507172     0.10100
H545        H  0.82939994  0.27593900  0.79198560     0.09100
N546        N  0.85308814  0.30739130  0.84458383    -0.34700
N547        N  0.84723274  0.30233387  0.85432162    -0.26900
C548        C  0.85196400  0.30762187  0.86479157    -0.02100
C549        C  0.86125833  0.31642005  0.86154437     0.06500
C550        C  0.86163527  0.31597175  0.84863524     0.04600
H551        H  0.84892997  0.30510122  0.87410007     0.09700
H552        H  0.86763190  0.32155117  0.84253540     0.08500
N553        N  0.72434100  0.17705050  0.84702860    -0.25900
N554        N  0.72596236  0.18053642  0.83541464    -0.33700
C555        C  0.73433829  0.19011406  0.83509209     0.02500
C556        C  0.73825446  0.19284194  0.84705844     0.08500
C557        C  0.73175482  0.18433571  0.85440063    -0.04600
H558        H  0.73746431  0.19467039  0.82669387     0.09200
H559        H  0.73228271  0.18355037  0.86435824     0.10400
Cu560      Cu  0.71704648  0.17223814  0.82023002     0.44200
Cu561      Cu  0.71188658  0.16263914  0.85217896     0.42000
Cu562      Cu  0.69533771  0.14710369  0.82622621     0.43900
N563        N  0.70757770  0.16255281  0.80619202    -0.33300
N564        N  0.69958570  0.15320097  0.80835777    -0.27500
C565        C  0.69529643  0.14866963  0.79739268    -0.03600
C566        C  0.70086024  0.15553300  0.78783904     0.08600
C567        C  0.70858734  0.16425950  0.79381139     0.02400
H568        H  0.68866501  0.14093679  0.79646911     0.10100
H569        H  0.71472420  0.17119426  0.78948230     0.09100
N570        N  0.69256104  0.14265105  0.84484248    -0.34700
N571        N  0.69841999  0.14824026  0.85428156    -0.26900
C572        C  0.69399911  0.14326881  0.86502958    -0.02100
C573        C  0.68496050  0.13408509  0.86220791     0.06500
C574        C  0.68434019  0.13398402  0.84931723     0.04600
H575        H  0.69708261  0.14620086  0.87420750     0.09700
H576        H  0.67812954  0.12824894  0.84359969     0.08500
N577        N  0.04102841  0.44967025  0.02790200    -0.25900
N578        N  0.03981859  0.45726012  0.02324086    -0.33700
C579        C  0.03222973  0.45334591  0.01467481     0.02500
C580        C  0.02832577  0.44273797  0.01388437     0.08500
C581        C  0.03402896  0.44062700  0.02248522    -0.04600
H582        H  0.02947295  0.45785144  0.00973449     0.09200
H583        H  0.03315012  0.43310902  0.02464161     0.10400
Cu584      Cu  0.04768845  0.47256299  0.02916635     0.44200
Cu585      Cu  0.05235059  0.45233153  0.04133420     0.42000
Cu586      Cu  0.06595746  0.47916323  0.05350508     0.43900
N587        N  0.05534718  0.48723077  0.03704773    -0.33300
N588        N  0.06203443  0.48969132  0.04628175    -0.27500
C589        C  0.06548843  0.49963767  0.04962859    -0.03600
C590        C  0.06075253  0.50363604  0.04205477     0.08600
C591        C  0.05435896  0.49552007  0.03420868     0.02400
H592        H  0.07107877  0.50365628  0.05695172     0.10100
H593        H  0.04917312  0.49553740  0.02716114     0.09100
N594        N  0.06938068  0.46770490  0.05845777    -0.34700
N595        N  0.06473532  0.45809568  0.05402789    -0.26900
C596        C  0.06934859  0.45304791  0.05899141    -0.02100
C597        C  0.07717329  0.45980950  0.06699220     0.06500
C598        C  0.07694201  0.46900725  0.06637966     0.04600
H599        H  0.06711178  0.44508100  0.05704748     0.09700
H600        H  0.08200216  0.47616892  0.07112219     0.08500
N601        N  0.03579793  0.60237977  0.02970649    -0.25900
N602        N  0.03216919  0.59222137  0.02955819    -0.33700
C603        C  0.02311452  0.58751393  0.02336868     0.02500
C604        C  0.02082582  0.59500098  0.01929995     0.08500
C605        C  0.02909592  0.60438021  0.02344526    -0.04600
H606        H  0.01875353  0.57925828  0.02149125     0.09200
H607        H  0.03018026  0.61207394  0.02199472     0.10400
Cu608      Cu  0.03997536  0.58497210  0.03640646     0.44200
Cu609      Cu  0.04984222  0.61283335  0.03844535     0.42000
Cu610      Cu  0.06567905  0.60123406  0.04748963     0.43900
N611        N  0.04985650  0.57936322  0.04073260    -0.33300
N612        N  0.05953349  0.58543419  0.04439180    -0.27500
C613        C  0.06410669  0.57963141  0.04589072    -0.03600
C614        C  0.05692002  0.56937647  0.04308031     0.08600
C615        C  0.04796922  0.56952613  0.03984519     0.02400
H616        H  0.07201127  0.58263919  0.04900662     0.10100
H617        H  0.04068482  0.56302274  0.03678802     0.09100
N618        N  0.06933126  0.61632536  0.05181199    -0.34700
N619        N  0.06370264  0.62062239  0.04869217    -0.26900
C620        C  0.06810365  0.63023977  0.05372981    -0.02100
C621        C  0.07692129  0.63208298  0.06035016     0.06500
C622        C  0.07737093  0.62302507  0.05887593     0.04600
H623        H  0.06504059  0.63544962  0.05269858     0.09700
H624        H  0.08288489  0.62120067  0.06305786     0.08500
N625        N  0.94945121  0.55946651  0.94531637    -0.25900
N626        N  0.95354961  0.55333749  0.94545578    -0.33700
C627        C  0.96223510  0.55775535  0.95235857     0.02500
C628        C  0.96370414  0.56708998  0.95698637     0.08500
C629        C  0.95540471  0.56792841  0.95240622    -0.04600
H630        H  0.96690340  0.55420170  0.95431927     0.09200
H631        H  0.95382883  0.57419425  0.95408724     0.10400
Cu632      Cu  0.94672767  0.53859367  0.93772823     0.44200
Cu633      Cu  0.93602239  0.55574190  0.93508629     0.42000
Cu634      Cu  0.92310398  0.52929546  0.92131348     0.43900
N635        N  0.93788849  0.52325708  0.93208134    -0.33300
N636        N  0.92899538  0.51966005  0.92610733    -0.27500
C637        C  0.92490582  0.50935280  0.92426436    -0.03600
C638        C  0.93158340  0.50631121  0.92935990     0.08600
C639        C  0.93971449  0.51538868  0.93425063     0.02400
H640        H  0.91764525  0.50448363  0.91952599     0.10100
H641        H  0.94633095  0.51620380  0.93938132     0.09100
N642        N  0.91915227  0.54064068  0.91751296    -0.34700
N643        N  0.92358500  0.55005839  0.92249599    -0.26900
C644        C  0.91909364  0.55525079  0.91766147    -0.02100
C645        C  0.91148498  0.54882196  0.90920380     0.06500
C646        C  0.91182257  0.53964137  0.90940172     0.04600
H647        H  0.92121283  0.56312320  0.92019511     0.09700
H648        H  0.90726594  0.53275763  0.90383104     0.08500
N649        N  0.94844608  0.40347342  0.95382037    -0.25900
N650        N  0.94961866  0.41236703  0.95810909    -0.33700
C651        C  0.95774666  0.41665661  0.96592766     0.02500
C652        C  0.96200803  0.41023998  0.96667816     0.08500
C653        C  0.95592923  0.40194579  0.95880857    -0.04600
H654        H  0.96058789  0.42413500  0.97037265     0.09200
H655        H  0.95688652  0.39532815  0.95682149     0.10400
Cu656      Cu  0.94105205  0.41923029  0.95253969     0.44200
Cu657      Cu  0.93688726  0.39415596  0.94096243     0.42000
Cu658      Cu  0.92471282  0.40777493  0.92644264     0.43900
N659        N  0.93356158  0.42609828  0.94371220    -0.33300
N660        N  0.92784358  0.42204228  0.93363406    -0.27500
C661        C  0.92469448  0.42855490  0.92936762    -0.03600
C662        C  0.92855878  0.43711098  0.93721899     0.08600
C663        C  0.93413422  0.43526741  0.94623271     0.02400
H664        H  0.91997360  0.42717373  0.92114654     0.10100
H665        H  0.93862618  0.44040324  0.95374782     0.09100
N666        N  0.92112929  0.39272134  0.92199192    -0.34700
N667        N  0.92517360  0.38754436  0.92743189    -0.26900
C668        C  0.92052530  0.37779447  0.92274332    -0.02100
C669        C  0.91330146  0.37686065  0.91385742     0.06500
C670        C  0.91394074  0.38649444  0.91367898     0.04600
H671        H  0.92232455  0.37186527  0.92552527     0.09700
H672        H  0.90929055  0.38874448  0.90817644     0.08500
N673        N  0.55037329  0.59807340  0.44180357    -0.25900
N674        N  0.54477206  0.58787268  0.44033253    -0.33700
C675        C  0.54887050  0.58327519  0.44730635     0.02500
C676        C  0.55744745  0.59090487  0.45357909     0.08500
C677        C  0.55815674  0.60020943  0.44984608    -0.04600
H678        H  0.54547798  0.57494730  0.44830179     0.09200
H679        H  0.56377401  0.60794701  0.45293146     0.10400
Cu680      Cu  0.53088453  0.58040551  0.43049866     0.44200
Cu681      Cu  0.54668958  0.60853457  0.43340834     0.42000
Cu682      Cu  0.52058990  0.59661277  0.42057296     0.43900
N683        N  0.51586376  0.57451086  0.42380366    -0.33300
N684        N  0.51186466  0.58045570  0.42092249    -0.27500
C685        C  0.50172940  0.57433990  0.41819684    -0.03600
C686        C  0.49930085  0.56406261  0.41922719     0.08600
C687        C  0.50843739  0.56445685  0.42277240     0.02400
H688        H  0.49653285  0.57715729  0.41563812     0.10100
H689        H  0.50950132  0.55791942  0.42492539     0.09100
N690        N  0.53138843  0.61239372  0.41914775    -0.34700
N691        N  0.54088611  0.61680072  0.42379828    -0.26900
C692        C  0.54600235  0.62694104  0.42054145    -0.02100
C693        C  0.53944322  0.62899823  0.41340120     0.06500
C694        C  0.53024324  0.61956992  0.41276665     0.04600
H695        H  0.55405253  0.63229106  0.42270650     0.09700
H696        H  0.52326473  0.61796236  0.40781071     0.08500
N697        N  0.39750930  0.44420686  0.44287038    -0.25900
N698        N  0.40756653  0.45095477  0.44337424    -0.33700
C699        C  0.41212139  0.44754156  0.45140016     0.02500
C700        C  0.40464235  0.43814237  0.45633055     0.08500
C701        C  0.39540723  0.43626847  0.45075207    -0.04600
H702        H  0.42026569  0.45181914  0.45378689     0.09200
H703        H  0.38775916  0.42966261  0.45230726     0.10400
Cu704      Cu  0.41494247  0.46496159  0.43401633     0.44200
Cu705      Cu  0.38746622  0.44672899  0.43152206     0.42000
Cu706      Cu  0.40037396  0.47233622  0.41505898     0.43900
N707        N  0.42148434  0.47923160  0.42527113    -0.33300
N708        N  0.41616504  0.48211542  0.41809534    -0.27500
C709        C  0.42253072  0.49192309  0.41410892    -0.03600
C710        C  0.43236021  0.49536130  0.41908149     0.08600
C711        C  0.43132407  0.48705510  0.42613674     0.02400
H712        H  0.42015561  0.49618852  0.40808008     0.10100
H713        H  0.43716463  0.48677857  0.43183137     0.09100
N714        N  0.38460972  0.46144411  0.41423492    -0.34700
N715        N  0.37992898  0.45224153  0.41981690    -0.26900
C716        C  0.36969259  0.44745066  0.41711123    -0.02100
C717        C  0.36786930  0.45402689  0.40964150     0.06500
C718        C  0.37751155  0.46279248  0.40800816     0.04600
H719        H  0.36399794  0.43991177  0.42058320     0.09700
H720        H  0.37925585  0.46960688  0.40268108     0.08500
N721        N  0.43736593  0.40476100  0.53763041    -0.25900
N722        N  0.44375935  0.41493483  0.53752577    -0.33700
C723        C  0.43976249  0.41950786  0.53037524     0.02500
C724        C  0.43039369  0.41190391  0.52557297     0.08500
C725        C  0.42912386  0.40260183  0.53032612    -0.04600
H726        H  0.44366771  0.42774247  0.52831894     0.09200
H727        H  0.42277750  0.39485775  0.52847598     0.10400
Cu728      Cu  0.45822930  0.42234529  0.54582320     0.44200
Cu729      Cu  0.44073401  0.39454108  0.54745846     0.42000
Cu730      Cu  0.46742046  0.40701049  0.56040836     0.43900
N731        N  0.47293214  0.42870814  0.55338714    -0.33300
N732        N  0.47650900  0.42312387  0.55877547    -0.27500
C733        C  0.48628713  0.42957201  0.56272116    -0.03600
C734        C  0.48895724  0.43973145  0.55967878     0.08600
C735        C  0.48026939  0.43880100  0.55369625     0.02400
H736        H  0.49100693  0.42704952  0.56760649     0.10100
H737        H  0.47935925  0.44497544  0.54964374     0.09100
N738        N  0.45648120  0.39122851  0.56191743    -0.34700
N739        N  0.44682694  0.38671869  0.55769545    -0.26900
C740        C  0.44190614  0.37658878  0.56108069    -0.02100
C741        C  0.44882006  0.37461471  0.56760082     0.06500
C742        C  0.45795840  0.38409915  0.56791002     0.04600
H743        H  0.43390030  0.37106142  0.55890152     0.09700
H744        H  0.46508736  0.38579204  0.57251028     0.08500
N745        N  0.59202462  0.55845297  0.53399492    -0.25900
N746        N  0.58182652  0.55263935  0.53492128    -0.33700
C747        C  0.57731890  0.55671842  0.52783306     0.02500
C748        C  0.58497207  0.56559500  0.52206109     0.08500
C749        C  0.59425556  0.56643885  0.52613750    -0.04600
H750        H  0.56903027  0.55318807  0.52658324     0.09200
H751        H  0.60202550  0.57236314  0.52356573     0.10400
Cu752      Cu  0.57405495  0.53884513  0.54475475     0.44200
Cu753      Cu  0.60203203  0.55470554  0.54351442     0.42000
Cu754      Cu  0.58854940  0.52902704  0.55956551     0.43900
N755        N  0.56713303  0.52430819  0.55298578    -0.33300
N756        N  0.57247757  0.52049068  0.55841948    -0.27500
C757        C  0.56586989  0.51068991  0.56220777    -0.03600
C758        C  0.55586386  0.50821364  0.55889439     0.08600
C759        C  0.55700844  0.51708912  0.55310587     0.02400
H760        H  0.56822469  0.50563050  0.56659881     0.10100
H761        H  0.55096383  0.51820963  0.54910605     0.09100
N762        N  0.60441810  0.53939731  0.56019032    -0.34700
N763        N  0.60931730  0.54861465  0.55466460    -0.26900
C764        C  0.61944603  0.55331842  0.55780527    -0.02100
C765        C  0.62099168  0.54673418  0.56561367     0.06500
C766        C  0.61127018  0.53800605  0.56687675     0.04600
H767        H  0.62523079  0.56099168  0.55467969     0.09700
H768        H  0.60920786  0.53125977  0.57264122     0.08500
N769        N  0.43563454  0.26868709  0.62989092    -0.25900
N770        N  0.43355638  0.26506819  0.64143979    -0.33700
C771        C  0.43255482  0.25556774  0.64181222     0.02500
C772        C  0.43419440  0.25301575  0.62998033     0.08500
C773        C  0.43621627  0.26154533  0.62260532    -0.04600
H774        H  0.43131279  0.25108905  0.65024209     0.09200
H775        H  0.43810825  0.26253724  0.61277844     0.10400
Cu776      Cu  0.43380121  0.27353701  0.65681995     0.44200
Cu777      Cu  0.43780981  0.28341498  0.62527390     0.42000
Cu778      Cu  0.44154388  0.30011644  0.65282902     0.43900
N779        N  0.43677335  0.28343627  0.67171839    -0.33300
N780        N  0.43972126  0.29338429  0.67040872    -0.27500
C781        C  0.44109140  0.29769832  0.68183102    -0.03600
C782        C  0.43899584  0.29006727  0.69072128     0.08600
C783        C  0.43628355  0.28113956  0.68391143     0.02400
H784        H  0.44353908  0.30578704  0.68352375     0.10100
H785        H  0.43398186  0.27348122  0.68753509     0.09100
N786        N  0.44144174  0.30445980  0.63433530    -0.34700
N787        N  0.43973144  0.29844420  0.62445300    -0.26900
C788        C  0.43959470  0.30365700  0.61418328    -0.02100
C789        C  0.44144081  0.31344137  0.61775386     0.06500
C790        C  0.44258780  0.31363828  0.63058407     0.04600
H791        H  0.43840801  0.30061510  0.60479082     0.09700
H792        H  0.44394062  0.31993066  0.63680645     0.08500
N793        N  0.44276183  0.17565234  0.63490511    -0.25900
N794        N  0.44485916  0.17943211  0.64635582    -0.33700
C795        C  0.44520787  0.18864417  0.64663150     0.02500
C796        C  0.44321654  0.19086869  0.63476994     0.08500
C797        C  0.44164623  0.18241684  0.62753870    -0.04600
H798        H  0.44647686  0.19321224  0.65498268     0.09200
H799        H  0.43985803  0.18127979  0.61769824     0.10400
Cu800      Cu  0.44647658  0.17174194  0.66140945     0.44200
Cu801      Cu  0.44160642  0.16139617  0.63044948     0.42000
Cu802      Cu  0.44549806  0.14748394  0.65696006     0.43900
N803        N  0.44652847  0.16272894  0.67597707    -0.33300
N804        N  0.44630098  0.15377113  0.67455601    -0.27500
C805        C  0.44576722  0.14961407  0.68592006    -0.03600
C806        C  0.44550806  0.15627474  0.69482748     0.08600
C807        C  0.44604290  0.16450068  0.68815938     0.02400
H808        H  0.44508140  0.14209969  0.68753565     0.10100
H809        H  0.44583988  0.17118058  0.69185849     0.09100
N810        N  0.44344082  0.14265573  0.63841907    -0.34700
N811        N  0.44186896  0.14747166  0.62898720    -0.26900
C812        C  0.44088935  0.14213786  0.61842113    -0.02100
C813        C  0.44191816  0.13355773  0.62127889     0.06500
C814        C  0.44353038  0.13419237  0.63407209     0.04600
H815        H  0.43953391  0.14439285  0.60933851     0.09700
H816        H  0.44496988  0.12905796  0.63982381     0.08500
N817        N  0.43996398  0.27074796  0.84514854    -0.25900
N818        N  0.44260266  0.26963506  0.83372318    -0.33700
C819        C  0.44426967  0.26153681  0.83342701     0.02500
C820        C  0.44254969  0.25720576  0.84523243     0.08500
C821        C  0.43980293  0.26325567  0.85245996    -0.04600
H822        H  0.44599200  0.25863843  0.82503251     0.09200
H823        H  0.43766719  0.26218888  0.86221155     0.10400
Cu824      Cu  0.44249127  0.27818518  0.81860243     0.44200
Cu825      Cu  0.43646929  0.28237673  0.84959261     0.42000
Cu826      Cu  0.43699252  0.29884166  0.82308901     0.43900
N827        N  0.44035061  0.28596963  0.80398016    -0.33300
N828        N  0.43845277  0.29371989  0.80537492    -0.27500
C829        C  0.43735115  0.29691027  0.79395639    -0.03600
C830        C  0.43847140  0.29072730  0.78503175     0.08600
C831        C  0.44037677  0.28391362  0.79178580     0.02400
H832        H  0.43561950  0.30307647  0.79228622     0.10100
H833        H  0.44174318  0.27790760  0.78811090     0.09100
N834        N  0.43549006  0.30167143  0.84193536    -0.34700
N835        N  0.43505827  0.29565658  0.85132032    -0.26900
C836        C  0.43445479  0.29997427  0.86211835    -0.02100
C837        C  0.43460318  0.30923022  0.85953027     0.06500
C838        C  0.43523004  0.30998312  0.84658794     0.04600
H839        H  0.43412337  0.29664967  0.87119129     0.09700
H840        H  0.43592024  0.31633441  0.84093815     0.08500
N841        N  0.43505423  0.17154282  0.84772038    -0.25900
N842        N  0.43164469  0.17219316  0.83656024    -0.33700
C843        C  0.43078840  0.18077256  0.83597762     0.02500
C844        C  0.43388321  0.18590319  0.84727141     0.08500
C845        C  0.43659653  0.17985958  0.85452463    -0.04600
H846        H  0.42864881  0.18340125  0.82767672     0.09200
H847        H  0.43957490  0.18144709  0.86394421     0.10400
Cu848      Cu  0.43004816  0.16262884  0.82174955     0.44200
Cu849      Cu  0.43748719  0.15927644  0.85259191     0.42000
Cu850      Cu  0.43720902  0.14327673  0.82607212     0.43900
N851        N  0.43300650  0.15547972  0.80707961    -0.33300
N852        N  0.43604453  0.14856705  0.80854896    -0.27500
C853        C  0.43838408  0.14624471  0.79728790    -0.03600
C854        C  0.43676937  0.15204373  0.78830004     0.08600
C855        C  0.43330103  0.15775350  0.79491408     0.02400
H856        H  0.44137670  0.14101105  0.79584048     0.10100
H857        H  0.43126666  0.16328901  0.79123753     0.09100
N858        N  0.43735204  0.13952340  0.84471826    -0.34700
N859        N  0.43771678  0.14534474  0.85428810    -0.26900
C860        C  0.43781846  0.14056587  0.86494434    -0.02100
C861        C  0.43738777  0.13126045  0.86193478     0.06500
C862        C  0.43710093  0.13088413  0.84903347     0.04600
H863        H  0.43803514  0.14357547  0.87419461     0.09700
H864        H  0.43692346  0.12486093  0.84317290     0.08500
N865        N  0.55905924  0.83293809  0.34468726    -0.25900
N866        N  0.56165889  0.83149591  0.33336380    -0.33700
C867        C  0.56303855  0.82319719  0.33350798     0.02500
C868        C  0.56113918  0.81908039  0.34545601     0.08500
C869        C  0.55858303  0.82544925  0.35231057    -0.04600
H870        H  0.56475130  0.82004539  0.32533720     0.09200
H871        H  0.55638717  0.82461039  0.36204034     0.10400
Cu872      Cu  0.56189739  0.83990666  0.31769104     0.44200
Cu873      Cu  0.55589855  0.84489383  0.34875433     0.42000
Cu874      Cu  0.55422028  0.85922736  0.32163978     0.43900
N875        N  0.55956464  0.84750182  0.30277580    -0.33300
N876        N  0.55652297  0.85443808  0.30414717    -0.27500
C877        C  0.55486501  0.85720950  0.29276326    -0.03600
C878        C  0.55698155  0.85176795  0.28376072     0.08600
C879        C  0.55996937  0.84571730  0.29052239     0.02400
H880        H  0.55218271  0.86268240  0.29118018     0.10100
H881        H  0.56182507  0.84004857  0.28684042     0.09100
N882        N  0.55234832  0.86244443  0.34016902    -0.34700
N883        N  0.55309359  0.85737749  0.34992744    -0.26900
C884        C  0.55178405  0.86160266  0.36042457    -0.02100
C885        C  0.55007285  0.86968954  0.35718236     0.06500
C886        C  0.55046308  0.86995201  0.34423798     0.04600
H887        H  0.55198039  0.85891260  0.36973781     0.09700
H888        H  0.54968003  0.87536373  0.33820752     0.08500
N889        N  0.55275811  0.73299350  0.34635065    -0.25900
N890        N  0.55107747  0.73459768  0.33466361    -0.33700
C891        C  0.55090834  0.74356485  0.33393018     0.02500
C892        C  0.55267482  0.74796452  0.34569505     0.08500
C893        C  0.55387369  0.74106730  0.35336253    -0.04600
H894        H  0.54989350  0.74680903  0.32537138     0.09200
H895        H  0.55539317  0.74184221  0.36327617     0.10400
Cu896      Cu  0.54982519  0.72497324  0.31995271     0.44200
Cu897      Cu  0.55333505  0.71966567  0.35169434     0.42000
Cu898      Cu  0.55189274  0.70232162  0.32574746     0.43900
N899        N  0.54948061  0.71520585  0.30591291    -0.33300
N900        N  0.55021122  0.70679992  0.30784119    -0.27500
C901        C  0.54967781  0.70225387  0.29674110    -0.03600
C902        C  0.54853820  0.70811019  0.28736374     0.08600
C903        C  0.54852947  0.71628953  0.29363501     0.02400
H904        H  0.54996923  0.69515493  0.29564183     0.10100
H905        H  0.54808573  0.72273934  0.28960526     0.09100
N906        N  0.55294849  0.69953888  0.34463884    -0.34700
N907        N  0.55332023  0.70558431  0.35395889    -0.26900
C908        C  0.55347912  0.70106367  0.36482762    -0.02100
C909        C  0.55325850  0.69176372  0.36226308     0.06500
C910        C  0.55291915  0.69111052  0.34934520     0.04600
H911        H  0.55373340  0.70433268  0.37392429     0.09700
H912        H  0.55231362  0.68477424  0.34372808     0.08500
N913        N  0.54147852  0.82166836  0.13060067    -0.25900
N914        N  0.53933933  0.81833388  0.14225881    -0.33700
C915        C  0.53748383  0.80849873  0.14284753     0.02500
C916        C  0.53856422  0.80539982  0.13103127     0.08500
C917        C  0.54116844  0.81399463  0.12347057    -0.04600
H918        H  0.53592268  0.80407462  0.15140014     0.09200
H919        H  0.54278139  0.81464104  0.11357377     0.10400
Cu920      Cu  0.54007919  0.82750594  0.15727464     0.44200
Cu921      Cu  0.54477498  0.83667826  0.12547341     0.42000
Cu922      Cu  0.54707898  0.85397168  0.15180606     0.43900
N923        N  0.54287653  0.83797345  0.17161909    -0.33300
N924        N  0.54574636  0.84785781  0.16975301    -0.27500
C925        C  0.54761150  0.85267590  0.18092252    -0.03600
C926        C  0.54573821  0.84542282  0.19025767     0.08600
C927        C  0.54275012  0.83620260  0.18394389     0.02400
H928        H  0.55014613  0.86083795  0.18215250     0.10100
H929        H  0.54096126  0.82880730  0.18798466     0.09100
N930        N  0.54778204  0.85786534  0.13291042    -0.34700
N931        N  0.54702734  0.85175564  0.12347716    -0.26900
C932        C  0.54760839  0.85671002  0.11268486    -0.02100
C933        C  0.54879334  0.86641956  0.11538144     0.06500
C934        C  0.54884599  0.86680823  0.12833396     0.04600
H935        H  0.54719247  0.85344078  0.10354971     0.09700
H936        H  0.54930601  0.87301394  0.13408157     0.08500
N937        N  0.54351872  0.72558096  0.13298386    -0.25900
N938        N  0.54553555  0.72932765  0.14447706    -0.33700
C939        C  0.54528336  0.73824176  0.14491007     0.02500
C940        C  0.54292764  0.74031302  0.13317788     0.08500
C941        C  0.54178029  0.73207347  0.12580345    -0.04600
H942        H  0.54664363  0.74286157  0.15324661     0.09200
H943        H  0.54007459  0.73102802  0.11592926     0.10400
Cu944      Cu  0.54817695  0.72229010  0.15958177     0.44200
Cu945      Cu  0.54373067  0.71191504  0.12811900     0.42000
Cu946      Cu  0.54640934  0.69794983  0.15546359     0.43900
N947        N  0.54900229  0.71378859  0.17437593    -0.33300
N948        N  0.54822593  0.70459284  0.17295689    -0.27500
C949        C  0.54851491  0.70077726  0.18426581    -0.03600
C950        C  0.54950734  0.70795952  0.19327703     0.08600
C951        C  0.54977596  0.71610051  0.18658131     0.02400
H952        H  0.54800573  0.69332616  0.18576866     0.10100
H953        H  0.55010059  0.72303830  0.19028899     0.09100
N954        N  0.54529106  0.69321115  0.13705301    -0.34700
N955        N  0.54457459  0.69815325  0.12715143    -0.26900
C956        C  0.54437963  0.69280626  0.11685288    -0.02100
C957        C  0.54495927  0.68406867  0.12045048     0.06500
C958        C  0.54545949  0.68464626  0.13335781     0.04600
H959        H  0.54396227  0.69520688  0.10745464     0.09700
H960        H  0.54574135  0.67916275  0.13975265     0.08500
N961        N  0.54557423  0.59555103  0.03147924    -0.25900
N962        N  0.53783460  0.58710955  0.02642643    -0.33700
C963        C  0.54166220  0.58301398  0.01826434     0.02500
C964        C  0.55236170  0.58909065  0.01813144     0.08500
C965        C  0.55460232  0.59696990  0.02669723    -0.04600
H966        H  0.53698992  0.57590672  0.01311426     0.09200
H967        H  0.56219414  0.60326001  0.02922997     0.10400
Cu968      Cu  0.52237427  0.58077359  0.03131359     0.44200
Cu969      Cu  0.54314080  0.60453818  0.04462403     0.42000
Cu970      Cu  0.51592166  0.59288422  0.05542243     0.43900
N971        N  0.50753644  0.57436677  0.03858672    -0.33300
N972        N  0.50509469  0.57869378  0.04776283    -0.27500
C973        C  0.49509134  0.57234938  0.05096144    -0.03600
C974        C  0.49104174  0.56360626  0.04335917     0.08600
C975        C  0.49919403  0.56519736  0.03564381     0.02400
H976        H  0.49110898  0.57396102  0.05832294     0.10100
H977        H  0.49920795  0.55988565  0.02873738     0.09100
N978        N  0.52800212  0.60728313  0.06102340    -0.34700
N979        N  0.53773147  0.61162938  0.05708065    -0.26900
C980        C  0.54322198  0.62113598  0.06231195    -0.02100
C981        C  0.53665060  0.62278478  0.06998436     0.06500
C982        C  0.52708865  0.61383319  0.06889898     0.04600
H983        H  0.55139122  0.62641509  0.06069955     0.09700
H984        H  0.51989645  0.61227977  0.07326697     0.08500
N985        N  0.38863536  0.44220175  0.02697624    -0.25900
N986        N  0.39706827  0.45004933  0.02203725    -0.33700
C987        C  0.40087840  0.44643303  0.01322247     0.02500
C988        C  0.39467348  0.43574851  0.01261093     0.08500
C989        C  0.38698238  0.43329476  0.02151514    -0.04600
H990        H  0.40809701  0.45115192  0.00829746     0.09200
H991        H  0.38086137  0.42560691  0.02409525     0.10400
Cu992      Cu  0.40448751  0.46501559  0.02902271     0.44200
Cu993      Cu  0.38040397  0.44428454  0.04150108     0.42000
Cu994      Cu  0.39527752  0.46955426  0.05757505     0.43900
N995        N  0.41274479  0.47858241  0.03912021    -0.33300
N996        N  0.40950901  0.48031572  0.04985302    -0.27500
C997        C  0.41665375  0.48978269  0.05408197    -0.03600
C998        C  0.42481859  0.49416488  0.04559768     0.08600
C999        C  0.42202350  0.48679674  0.03625101     0.02400
H1000       H  0.41596273  0.49318144  0.06270298     0.10100
H1001       H  0.42630971  0.48741468  0.02782575     0.09100
N1002       N  0.38000768  0.45840488  0.06172892    -0.34700
N1003       N  0.37446948  0.44946330  0.05580542    -0.26900
C1004       C  0.36465001  0.44478674  0.06021092    -0.02100
C1005       C  0.36395295  0.45108152  0.06935032     0.06500
C1006       C  0.37392014  0.45958196  0.07007316     0.04600
H1007       H  0.35841764  0.43753159  0.05665698     0.09700
H1008       H  0.37662010  0.46626921  0.07610754     0.08500
N1009       N  0.43610764  0.39602080  0.95376293    -0.25900
N1010       N  0.44363151  0.40533525  0.95710697    -0.33700
C1011       C  0.43984293  0.40976346  0.96479577     0.02500
C1012       C  0.42936295  0.40299478  0.96648593     0.08500
C1013       C  0.42719970  0.39433551  0.95926040    -0.04600
H1014       H  0.44437176  0.41752016  0.96857928     0.09200
H1015       H  0.41975571  0.38735538  0.95812878     0.10400
Cu1016     Cu  0.45870685  0.41226172  0.95080160     0.44200
Cu1017     Cu  0.43890902  0.38647680  0.94176988     0.42000
Cu1018     Cu  0.46622966  0.39864055  0.93030356     0.43900
N1019       N  0.47333251  0.41893644  0.94312330    -0.33300
N1020       N  0.47629640  0.41396213  0.93544402    -0.27500
C1021       C  0.48613323  0.42051206  0.93178926    -0.03600
C1022       C  0.48946757  0.43010449  0.93744452     0.08600
C1023       C  0.48111328  0.42873820  0.94460137     0.02400
H1024       H  0.49041246  0.41849459  0.92528487     0.10100
H1025       H  0.48069459  0.43439904  0.95056586     0.09100
N1026       N  0.45439598  0.38378391  0.92572646    -0.34700
N1027       N  0.44466954  0.37933492  0.92973057    -0.26900
C1028       C  0.43927058  0.36982020  0.92447589    -0.02100
C1029       C  0.44588015  0.36826452  0.91673680     0.06500
C1030       C  0.45538768  0.37728525  0.91783471     0.04600
H1031       H  0.43107121  0.36455484  0.92590150     0.09700
H1032       H  0.46255072  0.37904380  0.91321058     0.08500
N1033       N  0.59211291  0.55077076  0.95464747    -0.25900
N1034       N  0.58316775  0.54308482  0.95875230    -0.33700
C1035       C  0.57939635  0.54664275  0.96766375     0.02500
C1036       C  0.58620435  0.55713775  0.96928110     0.08500
C1037       C  0.59418818  0.55955039  0.96080906    -0.04600
H1038       H  0.57197486  0.54201278  0.97221258     0.09200
H1039       H  0.60090542  0.56711104  0.95915431     0.10400
Cu1040     Cu  0.57573862  0.52825559  0.95151099     0.44200
Cu1041     Cu  0.60063299  0.54849299  0.94064329     0.42000
Cu1042     Cu  0.58770963  0.52169428  0.92746096     0.43900
N1043       N  0.56876036  0.51377855  0.94332586    -0.33300
N1044       N  0.57316439  0.51114958  0.93444927    -0.27500
C1045       C  0.56665140  0.50120529  0.93113015    -0.03600
C1046       C  0.55767678  0.49742741  0.93828913     0.08600
C1047       C  0.55933661  0.50568727  0.94586489     0.02400
H1048       H  0.56837448  0.49706627  0.92408618     0.10100
H1049       H  0.55402087  0.50594587  0.95255096     0.09100
N1050       N  0.60233197  0.53364818  0.92241825    -0.34700
N1051       N  0.60706634  0.54320167  0.92704807    -0.26900
C1052       C  0.61663567  0.54853829  0.92196734    -0.02100
C1053       C  0.61800038  0.54202045  0.91383052     0.06500
C1054       C  0.60871515  0.53269105  0.91433336     0.04600
H1055       H  0.62231019  0.55645298  0.92439228     0.09700
H1056       H  0.60672144  0.52562300  0.90928499     0.08500
N1057       N  0.25977072  0.43722881  0.35014293    -0.25900
N1058       N  0.25623767  0.43484566  0.33860443    -0.33700
C1059       C  0.24678515  0.43386954  0.33794359     0.02500
C1060       C  0.24408094  0.43573901  0.34960689     0.08500
C1061       C  0.25255780  0.43791269  0.35715664    -0.04600
H1062       H  0.24242774  0.43241942  0.32939330     0.09200
H1063       H  0.25346124  0.43994033  0.36693587     0.10400
Cu1064     Cu  0.26461172  0.43424630  0.32358902     0.44200
Cu1065     Cu  0.27455067  0.43977067  0.35501142     0.42000
Cu1066     Cu  0.29102458  0.44189458  0.32769556     0.43900
N1067       N  0.27431930  0.43629802  0.30877370    -0.33300
N1068       N  0.28424816  0.43933940  0.31014435    -0.27500
C1069       C  0.28861355  0.44067996  0.29877014    -0.03600
C1070       C  0.28101681  0.43838137  0.28979785     0.08600
C1071       C  0.27206071  0.43563595  0.29656436     0.02400
H1072       H  0.29671904  0.44323199  0.29719622     0.10100
H1073       H  0.26454922  0.43376710  0.29293741     0.09100
N1074       N  0.29557163  0.44318488  0.34626220    -0.34700
N1075       N  0.28969587  0.44211684  0.35609056    -0.26900
C1076       C  0.29515326  0.44298397  0.36652579    -0.02100
C1077       C  0.30493310  0.44482189  0.36308282     0.06500
C1078       C  0.30488428  0.44489635  0.35018278     0.04600
H1079       H  0.29227992  0.44249164  0.37591952     0.09700
H1080       H  0.31111645  0.44593703  0.34405325     0.08500
N1081       N  0.16655614  0.44405354  0.34656291    -0.25900
N1082       N  0.17049352  0.44649408  0.33518794    -0.33700
C1083       C  0.17981140  0.44705702  0.33502793     0.02500
C1084       C  0.18182967  0.44475664  0.34685184     0.08500
C1085       C  0.17322526  0.44282461  0.35393742    -0.04600
H1086       H  0.18457962  0.44862671  0.32681055     0.09200
H1087       H  0.17191123  0.44067516  0.36367283     0.10400
Cu1088     Cu  0.16256744  0.44799875  0.32014540     0.44200
Cu1089     Cu  0.15226501  0.44269312  0.35109248     0.42000
Cu1090     Cu  0.13744393  0.44548313  0.32504628     0.43900
N1091       N  0.15307011  0.44767656  0.30578399    -0.33300
N1092       N  0.14381595  0.44671993  0.30737252    -0.27500
C1093       C  0.13957310  0.44619119  0.29606960    -0.03600
C1094       C  0.14648456  0.44673117  0.28695415     0.08600
C1095       C  0.15496016  0.44774886  0.29352889     0.02400
H1096       H  0.13189279  0.44509249  0.29462694     0.10100
H1097       H  0.16199080  0.44838909  0.28971366     0.09100
N1098       N  0.13317170  0.44401564  0.34379337    -0.34700
N1099       N  0.13838004  0.44288005  0.35309634    -0.26900
C1100       C  0.13354545  0.44242888  0.36391466    -0.02100
C1101       C  0.12490834  0.44337132  0.36134881     0.06500
C1102       C  0.12493560  0.44434630  0.34847804     0.04600
H1103       H  0.13635661  0.44186812  0.37301031     0.09700
H1104       H  0.11941808  0.44529727  0.34288880     0.08500
N1105       N  0.26465433  0.44740926  0.13532190    -0.25900
N1106       N  0.26241096  0.44892201  0.14680134    -0.33700
C1107       C  0.25407101  0.45018251  0.14650809     0.02500
C1108       C  0.25081872  0.44934033  0.13427455     0.08500
C1109       C  0.25765633  0.44751069  0.12740984    -0.04600
H1110       H  0.25047983  0.45136198  0.15464954     0.09200
H1111       H  0.25760192  0.44642342  0.11743429     0.10400
Cu1112     Cu  0.27034041  0.44873899  0.16256391     0.44200
Cu1113     Cu  0.27734035  0.44557035  0.13116555     0.42000
Cu1114     Cu  0.29244774  0.44559902  0.15836935     0.43900
N1115       N  0.27881993  0.44784918  0.17731949    -0.33300
N1116       N  0.28702982  0.44672466  0.17588932    -0.27500
C1117       C  0.29059750  0.44613311  0.18723830    -0.03600
C1118       C  0.28429009  0.44691145  0.19625701     0.08600
C1119       C  0.27690719  0.44797934  0.18955289     0.02400
H1120       H  0.29725746  0.44517377  0.18876904     0.10100
H1121       H  0.27039975  0.44847839  0.19324681     0.09100
N1122       N  0.29616021  0.44452111  0.13989054    -0.34700
N1123       N  0.29082062  0.44458043  0.13005572    -0.26900
C1124       C  0.29573672  0.44427316  0.11962244    -0.02100
C1125       C  0.30462070  0.44401597  0.12302520     0.06500
C1126       C  0.30454160  0.44411171  0.13597471     0.04600
H1127       H  0.29321004  0.44461018  0.11027309     0.09700
H1128       H  0.31018526  0.44396517  0.14218285     0.08500
N1129       N  0.16910020  0.44822032  0.13216973    -0.25900
N1130       N  0.17091494  0.44622190  0.14362902    -0.33700
C1131       C  0.17949899  0.44539546  0.14362128     0.02500
C1132       C  0.18339851  0.44700494  0.13161520     0.08500
C1133       C  0.17666191  0.44886953  0.12455884    -0.04600
H1134       H  0.18276342  0.44389236  0.15183106     0.09200
H1135       H  0.17710068  0.45036444  0.11464790     0.10400
Cu1136     Cu  0.16216591  0.44512634  0.15919223     0.44200
Cu1137     Cu  0.15604697  0.44945015  0.12778393     0.42000
Cu1138     Cu  0.14040249  0.44855863  0.15508116     0.43900
N1139       N  0.15352439  0.44567800  0.17402660    -0.33300
N1140       N  0.14540975  0.44694995  0.17256992    -0.27500
C1141       C  0.14163331  0.44729420  0.18388347    -0.03600
C1142       C  0.14775226  0.44627597  0.19291013     0.08600
C1143       C  0.15520286  0.44524671  0.18627687     0.02400
H1144       H  0.13512011  0.44849710  0.18540847     0.10100
H1145       H  0.16140554  0.44427352  0.19004803     0.09100
N1146       N  0.13670378  0.44960573  0.13666397    -0.34700
N1147       N  0.14214109  0.44975658  0.12680562    -0.26900
C1148       C  0.13726123  0.45021296  0.11643480    -0.02100
C1149       C  0.12834205  0.45042693  0.11990368     0.06500
C1150       C  0.12833321  0.45006083  0.13284004     0.04600
H1151       H  0.13999458  0.45026266  0.10708063     0.09700
H1152       H  0.12278005  0.45030976  0.13913275     0.08500
C1153       C  0.21027385  0.45537827  0.11887466     0.14100
C1154       C  0.21215587  0.44779638  0.12420382     0.01000
C1155       C  0.20409555  0.43937593  0.13061818     0.16000
C1156       C  0.19454797  0.43886997  0.13237684     0.25400
C1157       C  0.19282199  0.44673941  0.12770100    -0.40900
C1158       C  0.20062365  0.45480880  0.12052395     0.32500
C1159       C  0.22275026  0.44918549  0.12458675     0.01100
F1160       F  0.20570070  0.43197923  0.13592749    -0.13200
F1161       F  0.19917760  0.46250783  0.11586832    -0.13700
C1162       C  0.23055774  0.45750506  0.13140336     0.16000
C1163       C  0.23988259  0.45775896  0.13410969     0.25400
C1164       C  0.24163284  0.44978987  0.12988276    -0.40800
C1165       C  0.23410782  0.44180826  0.12240261     0.32400
C1166       C  0.22469631  0.44146932  0.11984552     0.14100
F1167       F  0.22886899  0.46501743  0.13617772    -0.13200
F1168       F  0.23554176  0.43393649  0.11835756    -0.13700
F1169       F  0.24711230  0.46566077  0.14116005    -0.16000
F1170       F  0.21728341  0.43336013  0.11322428    -0.14600
F1171       F  0.21791016  0.46352062  0.11249521    -0.14600
F1172       F  0.18705275  0.43080368  0.13900081    -0.16000
C1173       C  0.14924739  0.44093399  0.25318733     0.14100
C1174       C  0.14458791  0.44579983  0.24679149     0.01000
C1175       C  0.13974416  0.45027804  0.25367797     0.16000
C1176       C  0.14001045  0.45031099  0.26678704     0.25400
C1177       C  0.14515434  0.44587799  0.27317791    -0.40900
C1178       C  0.14949989  0.44093417  0.26620447     0.32500
C1179       C  0.14524115  0.44648965  0.23297125     0.01100
F1180       F  0.13514914  0.45499947  0.24770737    -0.13200
F1181       F  0.15391856  0.43595802  0.27197583    -0.13700
C1182       C  0.13624680  0.44181591  0.22556855     0.16000
C1183       C  0.13702922  0.44187580  0.21251775     0.25400
C1184       C  0.14683076  0.44658197  0.20667076    -0.40800
C1185       C  0.15580871  0.45146194  0.21411949     0.32400
C1186       C  0.15501312  0.45143187  0.22711645     0.14100
F1187       F  0.12671913  0.43683635  0.23099189    -0.13200
F1188       F  0.16539036  0.45644074  0.20883061    -0.13700
F1189       F  0.12820781  0.43691956  0.20564596    -0.16000
F1190       F  0.16382581  0.45625450  0.23403527    -0.14600
F1191       F  0.15361314  0.43618264  0.24677492    -0.14600
F1192       F  0.13567415  0.45510157  0.27316337    -0.16000
C1193       C  0.29230541  0.44848757  0.25754713     0.14100
C1194       C  0.28384987  0.44215801  0.24985516     0.01000
C1195       C  0.27462741  0.43435096  0.25522036     0.16000
C1196       C  0.27380452  0.43294372  0.26816479     0.25400
C1197       C  0.28219504  0.43941217  0.27600682    -0.40900
C1198       C  0.29150555  0.44714392  0.27052148     0.32500
C1199       C  0.28453043  0.44380230  0.23622116     0.01100
F1200       F  0.26638240  0.42813146  0.24789012    -0.13200
F1201       F  0.29970252  0.45370629  0.27769095    -0.13700
C1202       C  0.28803842  0.43855477  0.22849936     0.16000
C1203       C  0.28819705  0.43972141  0.21551365     0.25400
C1204       C  0.28481063  0.44616356  0.21004570    -0.40800
C1205       C  0.28150719  0.45158572  0.21790854     0.32400
C1206       C  0.28134993  0.45038296  0.23087156     0.14100
F1207       F  0.29109532  0.43211868  0.23355374    -0.13200
F1208       F  0.27854323  0.45816859  0.21308942    -0.13700
F1209       F  0.29123631  0.43418579  0.20831874    -0.16000
F1210       F  0.27799778  0.45557368  0.23823120    -0.14600
F1211       F  0.30127081  0.45611033  0.25248179    -0.14600
F1212       F  0.26482408  0.42514581  0.27297754    -0.16000
C1213       C  0.19800641  0.43302990  0.35788224     0.14100
C1214       C  0.20809563  0.44084393  0.35455120     0.01000
C1215       C  0.20953818  0.45031032  0.34974446     0.16000
C1216       C  0.20100702  0.45171171  0.34766787     0.25400
C1217       C  0.19089290  0.44374934  0.35054409    -0.40900
C1218       C  0.18948803  0.43450613  0.35599013     0.32500
C1219       C  0.21692542  0.43877382  0.35479286     0.01100
F1220       F  0.21915781  0.45799785  0.34641107    -0.13200
F1221       F  0.17980062  0.42665153  0.35875721    -0.13700
C1222       C  0.21649682  0.43071047  0.34746411     0.16000
C1223       C  0.22516235  0.42941621  0.34636720     0.25400
C1224       C  0.23451859  0.43619700  0.35251566    -0.40800
C1225       C  0.23479424  0.44394266  0.36038305     0.32400
C1226       C  0.22608033  0.44524148  0.36146552     0.14100
F1227       F  0.20782894  0.42439126  0.34080826    -0.13200
F1228       F  0.24365801  0.45065028  0.36644579    -0.13700
F1229       F  0.22442855  0.42158617  0.33907797    -0.16000
F1230       F  0.22665631  0.45297749  0.36880003    -0.14600
F1231       F  0.19637447  0.42384260  0.36263430    -0.14600
F1232       F  0.20260510  0.46080935  0.34265730    -0.16000
C1233       C  0.51000602  0.45870305  0.93742054     0.14100
C1234       C  0.51915179  0.45824937  0.93603115     0.01000
C1235       C  0.51853448  0.44856569  0.93439474     0.16000
C1236       C  0.50887771  0.43938936  0.93456226     0.25400
C1237       C  0.49967815  0.43978691  0.93630320    -0.40900
C1238       C  0.50035743  0.44958489  0.93745364     0.32500
C1239       C  0.52931837  0.46790840  0.93669454     0.01100
F1240       F  0.52732061  0.44798749  0.93309292    -0.13200
F1241       F  0.49168417  0.45040081  0.93842368    -0.13700
C1242       C  0.53255460  0.47345082  0.94793827     0.16000
C1243       C  0.54190746  0.48286977  0.94853572     0.25400
C1244       C  0.54815355  0.48702745  0.93780651    -0.40800
C1245       C  0.54495666  0.48131919  0.92658244     0.32400
C1246       C  0.53563006  0.47181484  0.92606756     0.14100
F1247       F  0.52662430  0.46970936  0.95837412    -0.13200
F1248       F  0.55057352  0.48511818  0.91594949    -0.13700
F1249       F  0.54487710  0.48782018  0.95969683    -0.16000
F1250       F  0.53255379  0.46660305  0.91507342    -0.14600
F1251       F  0.51043955  0.46802443  0.93873251    -0.14600
F1252       F  0.50860388  0.43013080  0.93357613    -0.16000
C1253       C  0.33105658  0.44974619  0.11110938     0.14100
C1254       C  0.32875287  0.44548266  0.09905027     0.01000
C1255       C  0.31840239  0.44052757  0.09491266     0.16000
C1256       C  0.31051709  0.43996676  0.10267880     0.25400
C1257       C  0.31285586  0.44437395  0.11473974    -0.40900
C1258       C  0.32325054  0.44928565  0.11881451     0.32500
C1259       C  0.33731601  0.44673975  0.09072490     0.01100
F1260       F  0.31596964  0.43646908  0.08323310    -0.13200
F1261       F  0.32601594  0.45405770  0.13009022    -0.13700
C1262       C  0.33765908  0.43807705  0.08597707     0.16000
C1263       C  0.34621580  0.43942866  0.07890546     0.25400
C1264       C  0.35458628  0.44950028  0.07639521    -0.40800
C1265       C  0.35397988  0.45814168  0.08085394     0.32400
C1266       C  0.34548882  0.45675948  0.08794790     0.14100
F1267       F  0.32988926  0.42829229  0.08858236    -0.13200
F1268       F  0.36148845  0.46801581  0.07817718    -0.13700
F1269       F  0.34644538  0.43084980  0.07496010    -0.16000
F1270       F  0.34522371  0.46528008  0.09209923    -0.14600
F1271       F  0.34095823  0.45445795  0.11542991    -0.14600
F1272       F  0.30060174  0.43501767  0.09841066    -0.16000
C1273       C  0.40654958  0.40643674  0.97573944     0.14100
C1274       C  0.41037314  0.41241971  0.98666413     0.01000
C1275       C  0.41998051  0.41441408  0.99145050     0.16000
C1276       C  0.42586533  0.41085637  0.98519240     0.25400
C1277       C  0.42228551  0.40523124  0.97396755    -0.40900
C1278       C  0.41242491  0.40278913  0.96948023     0.32500
C1279       C  0.40482081  0.41725378  0.99270737     0.01100
F1280       F  0.42390796  0.42026146  0.00190633    -0.13200
F1281       F  0.40874024  0.39741158  0.95867670    -0.13700
C1282       C  0.40131473  0.41477292  0.00510092     0.16000
C1283       C  0.39741165  0.42038843  0.01139448     0.25400
C1284       C  0.39710468  0.42868578  0.00544208    -0.40800
C1285       C  0.40030091  0.43093650  0.99291035     0.32400
C1286       C  0.40405462  0.42522133  0.98657118     0.14100
F1287       F  0.40204410  0.40715595  0.01124814    -0.13200
F1288       F  0.40002778  0.43885991  0.98689639    -0.13700
F1289       F  0.39464509  0.41820092  0.02357163    -0.16000
F1290       F  0.40751752  0.42787194  0.97466338    -0.14600
F1291       F  0.39723867  0.40434114  0.97099656    -0.14600
F1292       F  0.43517740  0.41305979  0.99005066    -0.16000
C1293       C  0.58172601  0.57905302  0.97943143     0.14100
C1294       C  0.57717278  0.57552254  0.99124820     0.01000
C1295       C  0.57674704  0.56657966  0.99632912     0.16000
C1296       C  0.58023222  0.56091319  0.98940937     0.25400
C1297       C  0.58431901  0.56414762  0.97733194    -0.40900
C1298       C  0.58534478  0.57345031  0.97255725     0.32500
C1299       C  0.57174384  0.58033961  0.99763856     0.01100
F1300       F  0.57233267  0.56295081  0.00767695    -0.13200
F1301       F  0.58911714  0.57669588  0.96087364    -0.13700
C1302       C  0.56299666  0.57989537  0.99202228     0.16000
C1303       C  0.55697315  0.58316114  0.99853105     0.25400
C1304       C  0.55958206  0.58697783  0.01079828    -0.40800
C1305       C  0.56862343  0.58789039  0.01622149     0.32400
C1306       C  0.57461582  0.58452245  0.00971516     0.14100
F1307       F  0.55996775  0.57578370  0.98043294    -0.13200
F1308       F  0.57131953  0.59144952  0.02807297    -0.13700
F1309       F  0.54847887  0.58245717  0.99286562    -0.16000
F1310       F  0.58307268  0.58509015  0.01531337    -0.14600
F1311       F  0.58227608  0.58770303  0.97434970    -0.14600
F1312       F  0.57932147  0.55206464  0.99437153    -0.16000
C1313       C  0.44292873  0.52318011  0.05044820     0.14100
C1314       C  0.45226153  0.52456227  0.04537791     0.01000
C1315       C  0.45261054  0.51585796  0.04081132     0.16000
C1316       C  0.44375817  0.50597417  0.04111234     0.25400
C1317       C  0.43433833  0.50457301  0.04599546    -0.40900
C1318       C  0.43404956  0.51327371  0.05078710     0.32500
C1319       C  0.46168129  0.53503138  0.04482737     0.01100
F1320       F  0.46160362  0.51691689  0.03619695    -0.13200
F1321       F  0.42507642  0.51229235  0.05533211    -0.13700
C1322       C  0.46618367  0.54065938  0.05581655     0.16000
C1323       C  0.47554889  0.55014725  0.05534563     0.25400
C1324       C  0.48060426  0.55414806  0.04385693    -0.40800
C1325       C  0.47585982  0.54867917  0.03282777     0.32400
C1326       C  0.46649608  0.53922929  0.03331480     0.14100
F1327       F  0.46175793  0.53672248  0.06707368    -0.13200
F1328       F  0.48025455  0.55250668  0.02152646    -0.13700
F1329       F  0.47993122  0.55509767  0.06620371    -0.16000
F1330       F  0.46213075  0.53413054  0.02251572    -0.14600
F1331       F  0.44233088  0.53148551  0.05472294    -0.14600
F1332       F  0.44449209  0.49773979  0.03685495    -0.16000
C1333       C  0.54838951  0.66138604  0.10990902     0.14100
C1334       C  0.54345780  0.65893851  0.09825532     0.01000
C1335       C  0.53941285  0.66504443  0.09360825     0.16000
C1336       C  0.54003180  0.67330702  0.10066217     0.25400
C1337       C  0.54481198  0.67569834  0.11250825    -0.40900
C1338       C  0.54916332  0.66971514  0.11690577     0.32500
C1339       C  0.54217381  0.64976028  0.09119293     0.01100
F1340       F  0.53449534  0.66274269  0.08241189    -0.13200
F1341       F  0.55435016  0.67196812  0.12790404    -0.13700
C1342       C  0.53603519  0.63970858  0.09611342     0.16000
C1343       C  0.53444190  0.63097754  0.08931713     0.25400
C1344       C  0.53902155  0.63212327  0.07748567    -0.40800
C1345       C  0.54543274  0.64221481  0.07272311     0.32400
C1346       C  0.54693249  0.65095634  0.07949409     0.14100
F1347       F  0.53137145  0.63833698  0.10740791    -0.13200
F1348       F  0.54991105  0.64361494  0.06130814    -0.13700
F1349       F  0.52849050  0.62138482  0.09438645    -0.16000
F1350       F  0.55302270  0.66060331  0.07463419    -0.14600
F1351       F  0.55251534  0.65570300  0.11450741    -0.14600
F1352       F  0.53555338  0.67864578  0.09605512    -0.16000
C1353       C  0.54616192  0.78591982  0.11928737     0.14100
C1354       C  0.53877571  0.77672582  0.12529825     0.01000
C1355       C  0.53068155  0.77680538  0.13200344     0.16000
C1356       C  0.53034630  0.78603956  0.13333009     0.25400
C1357       C  0.53803648  0.79537507  0.12786905    -0.40900
C1358       C  0.54575104  0.79514405  0.12047222     0.32500
C1359       C  0.54020262  0.76747397  0.12592100     0.01100
F1360       F  0.52344592  0.76807759  0.13792757    -0.13200
F1361       F  0.55331722  0.80399294  0.11510793    -0.13700
C1362       C  0.54895746  0.76831285  0.13200619     0.16000
C1363       C  0.54995171  0.75951929  0.13392475     0.25400
C1364       C  0.54227103  0.74966909  0.12969158    -0.40800
C1365       C  0.53366957  0.74884430  0.12318476     0.32400
C1366       C  0.53259936  0.75767196  0.12140723     0.14100
F1367       F  0.55634699  0.77760940  0.13664178    -0.13200
F1368       F  0.52603514  0.73942263  0.11917924    -0.13700
F1369       F  0.55841732  0.76062100  0.14009312    -0.16000
F1370       F  0.52405808  0.75662811  0.11549389    -0.14600
F1371       F  0.55401174  0.78604737  0.11265113    -0.14600
F1372       F  0.52260808  0.78590764  0.14021967    -0.16000
C1373       C  0.54272024  0.70973705  0.25318351     0.14100
C1374       C  0.54788888  0.70519754  0.24722658     0.01000
C1375       C  0.55257801  0.70080076  0.25449751     0.16000
C1376       C  0.55255846  0.70142539  0.26757548     0.25400
C1377       C  0.54775944  0.70640684  0.27359105    -0.40900
C1378       C  0.54256063  0.71025407  0.26619216     0.32500
C1379       C  0.54884415  0.70566795  0.23344405     0.01100
F1380       F  0.55757501  0.69631825  0.24890749    -0.13200
F1381       F  0.53721838  0.71447898  0.27149819    -0.13700
C1382       C  0.55452040  0.71536018  0.22751233     0.16000
C1383       C  0.55498168  0.71605194  0.21449878     0.25400
C1384       C  0.54964825  0.70704586  0.20709398    -0.40800
C1385       C  0.54414819  0.69728696  0.21308380     0.32400
C1386       C  0.54378815  0.69661777  0.22615353     0.14100
F1387       F  0.55962206  0.72420054  0.23437959    -0.13200
F1388       F  0.53870224  0.68842545  0.20635742    -0.13700
F1389       F  0.56076999  0.72556645  0.20918135    -0.16000
F1390       F  0.53816016  0.68717337  0.23169601    -0.14600
F1391       F  0.53787479  0.71377106  0.24634176    -0.14600
F1392       F  0.55767150  0.69760257  0.27424593    -0.16000
C1393       C  0.56069783  0.84995209  0.24884147     0.14100
C1394       C  0.55226019  0.85050638  0.24381285     0.01000
C1395       C  0.54553620  0.85176159  0.25193563     0.16000
C1396       C  0.54719230  0.85241799  0.26487598     0.25400
C1397       C  0.55554063  0.85167717  0.26997972    -0.40900
C1398       C  0.56229914  0.85047662  0.26178334     0.32500
C1399       C  0.55034046  0.84949431  0.23012608     0.01100
F1400       F  0.53733137  0.85232826  0.24731315    -0.13200
F1401       F  0.57056127  0.84994764  0.26627017    -0.13700
C1402       C  0.54167128  0.84063842  0.22522248     0.16000
C1403       C  0.54010704  0.83940198  0.21229216     0.25400
C1404       C  0.54711291  0.84707658  0.20398602    -0.40800
C1405       C  0.55565250  0.85607379  0.20893779     0.32400
C1406       C  0.55729160  0.85722030  0.22188102     0.14100
F1407       F  0.53484453  0.83304890  0.23297121    -0.13200
F1408       F  0.56266423  0.86356715  0.20124581    -0.13700
F1409       F  0.53165971  0.83072168  0.20790181    -0.16000
F1410       F  0.56570592  0.86586761  0.22638864    -0.14600
F1411       F  0.56726760  0.84866563  0.24120264    -0.14600
F1412       F  0.54037283  0.85337238  0.27241878    -0.16000
C1413       C  0.56713185  0.79704993  0.34641101     0.14100
C1414       C  0.55844648  0.78924449  0.35275930     0.01000
C1415       C  0.55128747  0.79174034  0.35805710     0.16000
C1416       C  0.55249232  0.80169148  0.35641921     0.25400
C1417       C  0.56078938  0.80925611  0.34926221    -0.40900
C1418       C  0.56826587  0.80692596  0.34463374     0.32500
C1419       C  0.55633138  0.77830598  0.35251712     0.01100
F1420       F  0.54293177  0.78441514  0.36445135    -0.13200
F1421       F  0.57658536  0.81416648  0.33811003    -0.13700
C1422       C  0.56337263  0.77560715  0.35769800     0.16000
C1423       C  0.56194145  0.76557117  0.35600697     0.25400
C1424       C  0.55355188  0.75812888  0.34890399    -0.40800
C1425       C  0.54636720  0.76075998  0.34404077     0.32400
C1426       C  0.54769227  0.77070193  0.34592273     0.14100
F1427       F  0.57177203  0.78277775  0.36413685    -0.13200
F1428       F  0.53809223  0.75371731  0.33731388    -0.13700
F1429       F  0.56909479  0.76333670  0.36067179    -0.16000
F1430       F  0.54079731  0.77307714  0.34073963    -0.14600
F1431       F  0.57420947  0.79491435  0.34125121    -0.14600
F1432       F  0.54516360  0.80367037  0.36110870    -0.16000
C1433       C  0.44581548  0.35219094  0.88908207     0.14100
C1434       C  0.43910338  0.34197659  0.89318627     0.01000
C1435       C  0.43451467  0.34041649  0.90506298     0.16000
C1436       C  0.43657084  0.34894627  0.91267082     0.25400
C1437       C  0.44337530  0.35918428  0.90859964    -0.40900
C1438       C  0.44796026  0.36069755  0.89670224     0.32500
C1439       C  0.43710974  0.33303134  0.88507076     0.01100
F1440       F  0.42800072  0.33062757  0.90926243    -0.13200
F1441       F  0.45437847  0.37043874  0.89229503    -0.13700
C1442       C  0.44041923  0.32605293  0.88869296     0.16000
C1443       C  0.43943279  0.31820723  0.88054651     0.25400
C1444       C  0.43502014  0.31711015  0.86857982    -0.40800
C1445       C  0.43136550  0.32391573  0.86519245     0.32400
C1446       C  0.43245448  0.33180699  0.87332340     0.14100
F1447       F  0.44505704  0.32713449  0.89993461    -0.13200
F1448       F  0.42663780  0.32291618  0.85404332    -0.13700
F1449       F  0.44330463  0.31205962  0.88421368    -0.16000
F1450       F  0.42897652  0.33830884  0.86970815    -0.14600
F1451       F  0.45046040  0.35392243  0.87772735    -0.14600
F1452       F  0.43216462  0.34717291  0.92416999    -0.16000
C1453       C  0.44824870  0.23497876  0.84449116     0.14100
C1454       C  0.44011550  0.22742712  0.85179457     0.01000
C1455       C  0.43339319  0.23008027  0.85793803     0.16000
C1456       C  0.43450271  0.23997223  0.85637871     0.25400
C1457       C  0.44231999  0.24736631  0.84854820    -0.40900
C1458       C  0.44935077  0.24485004  0.84289409     0.32500
C1459       C  0.43812885  0.21656950  0.85205874     0.01100
F1460       F  0.42554642  0.22296104  0.86516345    -0.13200
F1461       F  0.45721137  0.25189823  0.83561991    -0.13700
C1462       C  0.44571825  0.21430232  0.85638433     0.16000
C1463       C  0.44414001  0.20417311  0.85546887     0.25400
C1464       C  0.43500201  0.19619709  0.85005340    -0.40800
C1465       C  0.42728451  0.19841463  0.84612239     0.32400
C1466       C  0.42881978  0.20848748  0.84714279     0.14100
F1467       F  0.45475206  0.22195729  0.86123981    -0.13200
F1468       F  0.41828332  0.19083038  0.84110490    -0.13700
F1469       F  0.45179912  0.20232052  0.85918193    -0.16000
F1470       F  0.42140243  0.21045915  0.84275815    -0.14600
F1471       F  0.45480323  0.23261316  0.83834986    -0.14600
F1472       F  0.42751391  0.24204839  0.86190159    -0.16000
C1473       C  0.44309763  0.16201025  0.75500287     0.14100
C1474       C  0.44136966  0.15306547  0.74848219     0.01000
C1475       C  0.43857686  0.14388545  0.75517444     0.16000
C1476       C  0.43726705  0.14357907  0.76814482     0.25400
C1477       C  0.43868854  0.15245393  0.77465323    -0.40900
C1478       C  0.44176870  0.16171967  0.76792966     0.32500
C1479       C  0.44210355  0.15328133  0.73467332     0.01100
F1480       F  0.43672003  0.13509155  0.74908709    -0.13200
F1481       F  0.44370863  0.17060505  0.77384844    -0.13700
C1482       C  0.44892040  0.15074930  0.72851506     0.16000
C1483       C  0.44980681  0.15137420  0.71547496     0.25400
C1484       C  0.44401770  0.15470542  0.70845182    -0.40800
C1485       C  0.43704234  0.15700423  0.71461316     0.32400
C1486       C  0.43605025  0.15623626  0.72757641     0.14100
F1487       F  0.45499210  0.14804924  0.73515756    -0.13200
F1488       F  0.43104144  0.15984950  0.70805512    -0.13700
F1489       F  0.45666194  0.14919432  0.70977339    -0.16000
F1490       F  0.42911297  0.15833645  0.73322133    -0.14600
F1491       F  0.44613649  0.17108669  0.74882758    -0.14600
F1492       F  0.43417005  0.13446060  0.77421946    -0.16000
C1493       C  0.44267980  0.28583409  0.72482556     0.14100
C1494       C  0.43879355  0.29158980  0.73092852     0.01000
C1495       C  0.43540636  0.29724818  0.72368614     0.16000
C1496       C  0.43574372  0.29701386  0.71061149     0.25400
C1497       C  0.43934016  0.29099861  0.70452857    -0.40900
C1498       C  0.44289347  0.28549054  0.71178610     0.32500
C1499       C  0.43813561  0.29149304  0.74480731     0.01100
F1500       F  0.43140659  0.30270000  0.72926489    -0.13200
F1501       F  0.44676602  0.27989996  0.70626188    -0.13700
C1502       C  0.44293355  0.30082495  0.75168727     0.16000
C1503       C  0.44270265  0.30062577  0.76478372     0.25400
C1504       C  0.43782391  0.29108823  0.77123441    -0.40800
C1505       C  0.43280910  0.28177729  0.76434004     0.32400
C1506       C  0.43289858  0.28198246  0.75128565     0.14100
F1507       F  0.44822749  0.31012431  0.74573585    -0.13200
F1508       F  0.42770193  0.27243909  0.77024963    -0.13700
F1509       F  0.44771863  0.30973906  0.77114295    -0.16000
F1510       F  0.42782624  0.27285347  0.74494830    -0.14600
F1511       F  0.44637430  0.28059664  0.73151494    -0.14600
F1512       F  0.43209933  0.30228716  0.70391815    -0.16000
C1513       C  0.44765195  0.21833875  0.63436991     0.14100
C1514       C  0.43958584  0.21731266  0.62660378     0.01000
C1515       C  0.43310308  0.20767635  0.62084313     0.16000
C1516       C  0.43453487  0.19914465  0.62303415     0.25400
C1517       C  0.44239498  0.20009000  0.63115924    -0.40900
C1518       C  0.44904686  0.20983049  0.63662441     0.32500
C1519       C  0.43753151  0.22610202  0.62541718     0.01100
F1520       F  0.42524785  0.20648001  0.61330525    -0.13200
F1521       F  0.45688762  0.21112031  0.64425903    -0.13700
C1522       C  0.44520296  0.23580674  0.62075637     0.16000
C1523       C  0.44382732  0.24449680  0.62137790     0.25400
C1524       C  0.43482017  0.24362466  0.62683593    -0.40800
C1525       C  0.42696521  0.23381657  0.63096741     0.32400
C1526       C  0.42827519  0.22512098  0.63019227     0.14100
F1527       F  0.45420041  0.23694054  0.61606304    -0.13200
F1528       F  0.41814806  0.23274105  0.63617644    -0.13700
F1529       F  0.45162035  0.25389943  0.61752995    -0.16000
F1530       F  0.42078022  0.21588181  0.63486722    -0.14600
F1531       F  0.45390374  0.22748597  0.64025341    -0.14600
F1532       F  0.42787694  0.18983652  0.61775814    -0.16000
C1533       C  0.45354452  0.35337240  0.58019254     0.14100
C1534       C  0.44440322  0.34713017  0.58699151     0.01000
C1535       C  0.43638364  0.34956360  0.58667280     0.16000
C1536       C  0.43762918  0.35827802  0.58000335     0.25400
C1537       C  0.44695965  0.36476828  0.57360556    -0.40900
C1538       C  0.45481966  0.36209339  0.57359670     0.32500
C1539       C  0.44350564  0.33841875  0.59484491     0.01100
F1540       F  0.42752487  0.34377096  0.59328860    -0.13200
F1541       F  0.46374753  0.36789034  0.56710385    -0.13700
C1542       C  0.45062361  0.34045368  0.60456063     0.16000
C1543       C  0.44993360  0.33234173  0.61196055     0.25400
C1544       C  0.44216803  0.32197590  0.60973860    -0.40800
C1545       C  0.43504487  0.31992017  0.59999897     0.32400
C1546       C  0.43566520  0.32807834  0.59267782     0.14100
F1547       F  0.45820297  0.35036096  0.60698817    -0.13200
F1548       F  0.42729872  0.31004974  0.59779262    -0.13700
F1549       F  0.45703919  0.33461764  0.62113726    -0.16000
F1550       F  0.42868798  0.32586860  0.58336215    -0.14600
F1551       F  0.46128280  0.35102411  0.57997818    -0.14600
F1552       F  0.42992648  0.36066789  0.58037499    -0.16000
C1553       C  0.50825676  0.46842498  0.56443683     0.14100
C1554       C  0.51778809  0.46864835  0.56367582     0.01000
C1555       C  0.51785013  0.45923164  0.56269482     0.16000
C1556       C  0.50849020  0.44975118  0.56180887     0.25400
C1557       C  0.49890136  0.44955044  0.56194892    -0.40900
C1558       C  0.49891586  0.45899097  0.56365581     0.32500
C1559       C  0.52756612  0.47875556  0.56268871     0.01100
F1560       F  0.52699091  0.45927583  0.56191594    -0.13200
F1561       F  0.48988162  0.45913811  0.56457871    -0.13700
C1562       C  0.53522631  0.48210771  0.57198290     0.16000
C1563       C  0.54444119  0.49169837  0.57080702     0.25400
C1564       C  0.54613405  0.49806473  0.56028530    -0.40800
C1565       C  0.53842280  0.49462267  0.55099464     0.32400
C1566       C  0.52924476  0.48509294  0.55221546     0.14100
F1567       F  0.53368407  0.47618778  0.58229748    -0.13200
F1568       F  0.53988015  0.50029198  0.54047228    -0.13700
F1569       F  0.55156040  0.49487564  0.58011872    -0.16000
F1570       F  0.52203917  0.48192016  0.54299538    -0.14600
F1571       F  0.50801178  0.47741360  0.56571735    -0.14600
F1572       F  0.50887226  0.44088009  0.56009216    -0.16000
C1573       C  0.33222957  0.45549162  0.37565952     0.14100
C1574       C  0.33060962  0.44884086  0.38582101     0.01000
C1575       C  0.32040871  0.44108445  0.38877741     0.16000
C1576       C  0.31200342  0.43991134  0.38158367     0.25400
C1577       C  0.31367121  0.44640854  0.37123224    -0.40900
C1578       C  0.32386373  0.45424901  0.36840070     0.32500
C1579       C  0.33963720  0.44982159  0.39296033     0.01100
F1580       F  0.31859573  0.43463541  0.39862869    -0.13200
F1581       F  0.32573251  0.46079440  0.35863713    -0.13700
C1582       C  0.34663097  0.45927989  0.39872986     0.16000
C1583       C  0.35567092  0.46054097  0.40439744     0.25400
C1584       C  0.35786451  0.45233417  0.40452505    -0.40800
C1585       C  0.35066615  0.44273343  0.39919296     0.32400
C1586       C  0.34166304  0.44151034  0.39339865     0.14100
F1587       F  0.34472159  0.46733282  0.39882024    -0.13200
F1588       F  0.35261567  0.43471174  0.39897286    -0.13700
F1589       F  0.36225620  0.46979049  0.40986023    -0.16000
F1590       F  0.33516447  0.43235653  0.38768534    -0.14600
F1591       F  0.34198021  0.46303073  0.37253501    -0.14600
F1592       F  0.30229025  0.43214729  0.38442445    -0.16000
C1593       C  0.40180264  0.42255316  0.48577821     0.14100
C1594       C  0.41129184  0.42261778  0.48587663     0.01000
C1595       C  0.41817206  0.42710832  0.47582535     0.16000
C1596       C  0.41579527  0.43177712  0.46601487     0.25400
C1597       C  0.40644121  0.43203587  0.46602104    -0.40900
C1598       C  0.39934605  0.42715273  0.47587090     0.32500
C1599       C  0.41454974  0.41883503  0.49682581     0.01100
F1600       F  0.42743170  0.42735822  0.47578375    -0.13200
F1601       F  0.39031363  0.42733951  0.47628737    -0.13700
C1602       C  0.41542361  0.40984180  0.49599151     0.16000
C1603       C  0.42001630  0.40718693  0.50568804     0.25400
C1604       C  0.42399786  0.41362138  0.51626181    -0.40800
C1605       C  0.42272628  0.42239871  0.51726109     0.32400
C1606       C  0.41799358  0.42493865  0.50766400     0.14100
F1607       F  0.41219105  0.40386666  0.48555660    -0.13200
F1608       F  0.42627529  0.42866693  0.52743782    -0.13700
F1609       F  0.42121513  0.39874508  0.50432344    -0.16000
F1610       F  0.41729252  0.43370086  0.50863816    -0.14600
F1611       F  0.39504438  0.41825964  0.49542639    -0.14600
F1612       F  0.42272825  0.43613451  0.45653840    -0.16000
C1613       C  0.55085972  0.65782341  0.40601827     0.14100
C1614       C  0.54718194  0.65744926  0.39383825     0.01000
C1615       C  0.54082535  0.64771671  0.38826339     0.16000
C1616       C  0.53823047  0.63851033  0.39466616     0.25400
C1617       C  0.54201476  0.63882328  0.40679513    -0.40900
C1618       C  0.54835903  0.64858693  0.41241630     0.32500
C1619       C  0.54992002  0.66709774  0.38673754     0.01100
F1620       F  0.53707650  0.64713744  0.37656210    -0.13200
F1621       F  0.55196883  0.64918885  0.42419517    -0.13700
C1622       C  0.55566921  0.66929249  0.37563394     0.16000
C1623       C  0.55709996  0.67755218  0.36795797     0.25400
C1624       C  0.55274916  0.68378949  0.37118427    -0.40800
C1625       C  0.54744526  0.68190170  0.38266904     0.32400
C1626       C  0.54606377  0.67363734  0.39037015     0.14100
F1627       F  0.55976367  0.66328821  0.37212150    -0.13200
F1628       F  0.54304750  0.68763308  0.38613849    -0.13700
F1629       F  0.56275426  0.67942023  0.35734238    -0.16000
F1630       F  0.54047670  0.67167690  0.40106102    -0.14600
F1631       F  0.55699835  0.66712832  0.41162970    -0.14600
F1632       F  0.53228160  0.62929227  0.38878660    -0.16000
C1633       C  0.57076902  0.57876649  0.47153739     0.14100
C1634       C  0.57356404  0.58454317  0.48266879     0.01000
C1635       C  0.57167681  0.59290290  0.48384287     0.16000
C1636       C  0.56680079  0.59525257  0.47420484     0.25400
C1637       C  0.56362405  0.58920672  0.46324300    -0.40900
C1638       C  0.56582764  0.58105096  0.46194024     0.32500
C1639       C  0.57745937  0.58114646  0.49342498     0.01100
F1640       F  0.57432896  0.59863227  0.49448031    -0.13200
F1641       F  0.56312064  0.57520992  0.45139228    -0.13700
C1642       C  0.58662948  0.58061353  0.49251830     0.16000
C1643       C  0.58948491  0.57610771  0.50214280     0.25400
C1644       C  0.58314641  0.57198250  0.51278967    -0.40800
C1645       C  0.57432581  0.57313454  0.51396500     0.32400
C1646       C  0.57149434  0.57761065  0.50437424     0.14100
F1647       F  0.59266705  0.58421289  0.48215414    -0.13200
F1648       F  0.56829405  0.56975817  0.52435415    -0.13700
F1649       F  0.59809621  0.57524548  0.50068147    -0.16000
F1650       F  0.56258340  0.57798127  0.50551591    -0.14600
F1651       F  0.57237202  0.57056676  0.47019978    -0.14600
F1652       F  0.56466447  0.60306182  0.47593074    -0.16000
C1653       C  0.47824021  0.53757447  0.40841612     0.14100
C1654       C  0.46987570  0.53582324  0.41621201     0.01000
C1655       C  0.47110736  0.54378652  0.42442226     0.16000
C1656       C  0.48056610  0.55316763  0.42501703     0.25400
C1657       C  0.48904246  0.55462866  0.41770944    -0.40900
C1658       C  0.48778954  0.54680300  0.40934436     0.32500
C1659       C  0.46019035  0.52547625  0.41637304     0.01100
F1660       F  0.46333734  0.54230093  0.43232596    -0.13200
F1661       F  0.49582126  0.54813103  0.40201658    -0.13700
C1662       C  0.46077719  0.51636650  0.41798043     0.16000
C1663       C  0.45177297  0.50662113  0.41847311     0.25400
C1664       C  0.44189250  0.50572037  0.41771130    -0.40800
C1665       C  0.44128609  0.51483602  0.41606889     0.32400
C1666       C  0.45034035  0.52459520  0.41530008     0.14100
F1667       F  0.47010663  0.51689956  0.41943104    -0.13200
F1668       F  0.43194889  0.51439381  0.41564797    -0.13700
F1669       F  0.45279612  0.49805595  0.41957279    -0.16000
F1670       F  0.44946409  0.53318864  0.41348916    -0.14600
F1671       F  0.47718127  0.53030237  0.39993647    -0.14600
F1672       F  0.48162532  0.56060189  0.43323942    -0.16000
C1673       C  0.91935005  0.47681894  0.93173005     0.14100
C1674       C  0.92817887  0.47569177  0.93196789     0.01000
C1675       C  0.93804517  0.48455354  0.93103270     0.16000
C1676       C  0.93912509  0.49444681  0.92999183     0.25400
C1677       C  0.93031811  0.49569725  0.92990440    -0.40900
C1678       C  0.92039034  0.48673250  0.93066696     0.32500
C1679       C  0.92724592  0.46531663  0.93315756     0.01100
F1680       F  0.94667324  0.48360751  0.93122166    -0.13200
F1681       F  0.91168887  0.48753998  0.93077562    -0.13700
C1682       C  0.92874840  0.46053694  0.92268309     0.16000
C1683       C  0.92887629  0.45120136  0.92394232     0.25400
C1684       C  0.92767169  0.44658107  0.93576104    -0.40800
C1685       C  0.92598661  0.45130045  0.94621933     0.32400
C1686       C  0.92570040  0.46056152  0.94490264     0.14100
F1687       F  0.93033691  0.46506723  0.91127068    -0.13200
F1688       F  0.92456978  0.44691925  0.95770323    -0.13700
F1689       F  0.93070891  0.44697350  0.91369486    -0.16000
F1690       F  0.92421994  0.46506282  0.95514048    -0.14600
F1691       F  0.90972908  0.46831198  0.93254085    -0.14600
F1692       F  0.94882282  0.50277011  0.92879812    -0.16000
C1693       C  0.99405610  0.58139287  0.00452111     0.14100
C1694       C  0.99544791  0.58782313  0.99422031     0.01000
C1695       C  0.00489884  0.59720873  0.99292294     0.16000
C1696       C  0.01301352  0.59987027  0.00144293     0.25400
C1697       C  0.01184345  0.59311373  0.01134492    -0.40900
C1698       C  0.00216438  0.58398910  0.01297366     0.32500
C1699       C  0.98757288  0.58403183  0.98409535     0.01100
F1700       F  0.00638501  0.60361287  0.98312304    -0.13200
F1701       F  0.00058887  0.57744550  0.02264898    -0.13700
C1702       C  0.97739753  0.58204699  0.98624929     0.16000
C1703       C  0.96970576  0.57715530  0.97707172     0.25400
C1704       C  0.97204193  0.57397488  0.96573847    -0.40800
C1705       C  0.98231772  0.57637011  0.96342809     0.32400
C1706       C  0.99001092  0.58140155  0.97247600     0.14100
F1707       F  0.97484921  0.58454990  0.99737930    -0.13200
F1708       F  0.98486058  0.57359399  0.95247590    -0.13700
F1709       F  0.95984564  0.57490328  0.97959200    -0.16000
F1710       F  0.99974132  0.58315742  0.97016688    -0.14600
F1711       F  0.98502663  0.57226753  0.00599558    -0.14600
F1712       F  0.02221480  0.60870653  0.99949876    -0.16000
C1713       C  0.10319613  0.44858188  0.10846785     0.14100
C1714       C  0.10610869  0.45339247  0.09671353     0.01000
C1715       C  0.11627289  0.45694302  0.09242646     0.16000
C1716       C  0.12344785  0.45586404  0.09983237     0.25400
C1717       C  0.12060807  0.45117457  0.11172686    -0.40900
C1718       C  0.11031835  0.44743149  0.11586126     0.32500
C1719       C  0.09860043  0.45488826  0.08907732     0.01100
F1720       F  0.11937906  0.46180157  0.08120962    -0.13200
F1721       F  0.10699617  0.44242952  0.12695863    -0.13700
C1722       C  0.09399305  0.46043063  0.09394926     0.16000
C1723       C  0.08695291  0.46190267  0.08681094     0.25400
C1724       C  0.08434539  0.45785196  0.07463671    -0.40800
C1725       C  0.08891156  0.45226205  0.06976756     0.32400
C1726       C  0.09599686  0.45081857  0.07691454     0.14100
F1727       F  0.09645719  0.46459494  0.10557941    -0.13200
F1728       F  0.08678874  0.44849131  0.05794421    -0.13700
F1729       F  0.08254198  0.46715322  0.09191772    -0.16000
F1730       F  0.10026025  0.44536710  0.07199142    -0.14600
F1731       F  0.09336471  0.44486249  0.11275349    -0.14600
F1732       F  0.13327716  0.45979672  0.09548202    -0.16000
C1733       C  0.00919991  0.43221583  0.98716702     0.14100
C1734       C  0.00064832  0.42368856  0.99280124     0.01000
C1735       C  0.00170695  0.42070400  0.00493021     0.16000
C1736       C  0.01100344  0.42648280  0.01155709     0.25400
C1737       C  0.01931250  0.43543994  0.00621631    -0.40900
C1738       C  0.01842223  0.43807706  0.99383832     0.32500
C1739       C  0.99031550  0.41894716  0.98671061     0.01100
F1740       F  0.99355633  0.41247261  0.01055370    -0.13200
F1741       F  0.02639406  0.44655355  0.98832902    -0.13700
C1742       C  0.98841252  0.41368936  0.97524368     0.16000
C1743       C  0.97898979  0.41036192  0.96892774     0.25400
C1744       C  0.97140401  0.41240127  0.97391701    -0.40800
C1745       C  0.97322094  0.41732468  0.98562063     0.32400
C1746       C  0.98255651  0.42054444  0.99193490     0.14100
F1747       F  0.99577963  0.41200426  0.97004358    -0.13200
F1748       F  0.96597813  0.41913773  0.99093884    -0.13700
F1749       F  0.97755399  0.40569181  0.95763685    -0.16000
F1750       F  0.98423446  0.42570482  0.00292200    -0.14600
F1751       F  0.00837803  0.43529981  0.97549599    -0.14600
F1752       F  0.01157871  0.42379343  0.02351510    -0.16000
C1753       C  0.05159348  0.54174059  0.04735679     0.14100
C1754       C  0.06106829  0.54264697  0.04367774     0.01000
C1755       C  0.06925161  0.55236900  0.03992642     0.16000
C1756       C  0.06796741  0.56110987  0.03984947     0.25400
C1757       C  0.05842249  0.56021384  0.04342022    -0.40900
C1758       C  0.05025317  0.55042500  0.04719243     0.32500
C1759       C  0.06214634  0.53327927  0.04325468     0.01100
F1760       F  0.07845636  0.55336442  0.03627834    -0.13200
F1761       F  0.04100576  0.54926534  0.05093664    -0.13700
C1762       C  0.06172245  0.52855723  0.03176637     0.16000
C1763       C  0.06152872  0.51903619  0.03136626     0.25400
C1764       C  0.06184036  0.51412081  0.04247402    -0.40800
C1765       C  0.06270428  0.51910485  0.05396288     0.32400
C1766       C  0.06278525  0.52858527  0.05433737     0.14100
F1767       F  0.06112006  0.53300324  0.02095473    -0.13200
F1768       F  0.06291543  0.51455953  0.06487153    -0.13700
F1769       F  0.06103383  0.51462871  0.02009782    -0.16000
F1770       F  0.06324608  0.53308519  0.06553175    -0.14600
F1771       F  0.04356413  0.53236342  0.05089744    -0.14600
F1772       F  0.07593374  0.57034776  0.03584610    -0.16000
C1773       C  0.88698745  0.33826061  0.87386918     0.14100
C1774       C  0.88392753  0.34116243  0.88485583     0.01000
C1775       C  0.87344376  0.33558043  0.88849012     0.16000
C1776       C  0.86609676  0.32740933  0.88109467     0.25400
C1777       C  0.86909849  0.32464535  0.86988593    -0.40900
C1778       C  0.87968843  0.33006941  0.86650695     0.32500
C1779       C  0.89162728  0.35021804  0.89227338     0.01100
F1780       F  0.87024804  0.33830486  0.89898461    -0.13200
F1781       F  0.88306930  0.32734213  0.85618168    -0.13700
C1782       C  0.89676766  0.36020668  0.88692017     0.16000
C1783       C  0.90390612  0.36880718  0.89388367     0.25400
C1784       C  0.90612404  0.36760107  0.90634895    -0.40800
C1785       C  0.90109652  0.35756689  0.91164674     0.32400
C1786       C  0.89386557  0.34896854  0.90469117     0.14100
F1787       F  0.89471280  0.36166688  0.87497985    -0.13200
F1788       F  0.90288901  0.35612137  0.92369722    -0.13700
F1789       F  0.90877003  0.37831251  0.88834132    -0.16000
F1790       F  0.88907034  0.33939640  0.91006262    -0.14600
F1791       F  0.89710657  0.34334517  0.87029913    -0.14600
F1792       F  0.85599033  0.32252411  0.88467822    -0.16000
C1793       C  0.77895930  0.23986362  0.86045891     0.14100
C1794       C  0.77719873  0.23026617  0.85572672     0.01000
C1795       C  0.78541166  0.22970503  0.85001915     0.16000
C1796       C  0.79506562  0.23867241  0.84845297     0.25400
C1797       C  0.79673642  0.24837572  0.85267383    -0.40900
C1798       C  0.78870369  0.24885549  0.85904453     0.32500
C1799       C  0.76661189  0.22107473  0.85531198     0.01100
F1800       F  0.78388709  0.22055811  0.84525706    -0.13200
F1801       F  0.79005132  0.25811986  0.86311317    -0.13700
C1802       C  0.75908078  0.22125853  0.84758755     0.16000
C1803       C  0.74968668  0.21213873  0.84531816     0.25400
C1804       C  0.74760981  0.20266306  0.85080319    -0.40800
C1805       C  0.75490501  0.20259986  0.85911532     0.32400
C1806       C  0.76437265  0.21173223  0.86127582     0.14100
F1807       F  0.76108105  0.23016158  0.84164317    -0.13200
F1808       F  0.75318125  0.19358631  0.86450395    -0.13700
F1809       F  0.74267734  0.21254625  0.83756820    -0.16000
F1810       F  0.77152516  0.21139114  0.86882816    -0.14600
F1811       F  0.77113080  0.24057571  0.86603691    -0.14600
F1812       F  0.80273098  0.23791203  0.84249930    -0.16000
C1813       C  0.70644811  0.14847001  0.72903646     0.14100
C1814       C  0.69844459  0.14961460  0.73436107     0.01000
C1815       C  0.69110836  0.15008644  0.72654366     0.16000
C1816       C  0.69187799  0.14960027  0.71354051     0.25400
C1817       C  0.70011946  0.14881949  0.70817241    -0.40900
C1818       C  0.70731418  0.14812596  0.71607226     0.32500
C1819       C  0.69813780  0.15083335  0.74804212     0.01100
F1820       F  0.68327895  0.15114216  0.73152170    -0.13200
F1821       F  0.71518334  0.14706111  0.71124496    -0.13700
C1822       C  0.70072078  0.16055761  0.75312002     0.16000
C1823       C  0.70140264  0.16202976  0.76606152     0.32600
C1824       C  0.69942711  0.15376121  0.77417353    -0.40800
C1825       C  0.69652106  0.14392827  0.76904879     0.32400
C1826       C  0.69595764  0.14250993  0.75608873     0.14100
F1827       F  0.70293367  0.16873104  0.74550537    -0.13200
F1828       F  0.69471674  0.13580386  0.77652931    -0.13700
F1829       F  0.70396552  0.17155016  0.77064767    -0.16000
F1830       F  0.69345280  0.13304579  0.75136135    -0.14600
F1831       F  0.71362806  0.14800878  0.73641764    -0.14600
F1832       F  0.68484965  0.15037896  0.70621791    -0.16000
C1833       C  0.83232737  0.28859002  0.72874345     0.14100
C1834       C  0.84202004  0.29201406  0.73434552     0.01000
C1835       C  0.85076338  0.29491321  0.72680028     0.16000
C1836       C  0.84982297  0.29431920  0.71377063     0.25400
C1837       C  0.84008592  0.29080951  0.70808017    -0.40900
C1838       C  0.83135708  0.28802041  0.71574036     0.32500
C1839       C  0.84289078  0.29217864  0.74809254     0.01100
F1840       F  0.86017002  0.29808925  0.73208884    -0.13200
F1841       F  0.82188285  0.28488598  0.71067183    -0.13700
C1842       C  0.84064730  0.28306207  0.75453282     0.16000
C1843       C  0.84094369  0.28299258  0.76757588     0.25400
C1844       C  0.84342282  0.29205373  0.77444981    -0.40800
C1845       C  0.84594169  0.30127280  0.76791620     0.32400
C1846       C  0.84564882  0.30131066  0.75483168     0.14100
F1847       F  0.83806859  0.27418354  0.74815481    -0.13200
F1848       F  0.84821628  0.31012235  0.77415988    -0.13700
F1849       F  0.83889337  0.27405476  0.77346156    -0.16000
F1850       F  0.84778218  0.31018583  0.74872542    -0.14600
F1851       F  0.82377896  0.28574647  0.73590530    -0.14600
F1852       F  0.85836277  0.29676129  0.70678550    -0.16000
C1853       C  0.78658862  0.22420520  0.62271474     0.14100
C1854       C  0.77709415  0.22162620  0.62844510     0.01000
C1855       C  0.77626872  0.22920020  0.63539723     0.16000
C1856       C  0.78491338  0.23906671  0.63708247     0.25400
C1857       C  0.79456854  0.24156450  0.63181813    -0.40900
C1858       C  0.79526184  0.23413938  0.62430739     0.32500
C1859       C  0.76828723  0.21082568  0.62831180     0.01100
F1860       F  0.76719465  0.22685227  0.64111263    -0.13200
F1861       F  0.80445655  0.23625159  0.61915032    -0.13700
C1862       C  0.76902010  0.20305916  0.63496527     0.16000
C1863       C  0.76023992  0.19327024  0.63671798     0.25400
C1864       C  0.75060000  0.19104551  0.63172133    -0.40800
C1865       C  0.74999830  0.19865636  0.62449027     0.32400
C1866       C  0.75877204  0.20850412  0.62288376     0.14100
F1867       F  0.77811652  0.20516233  0.64038782    -0.13200
F1868       F  0.74078602  0.19683137  0.61970793    -0.13700
F1869       F  0.76111277  0.18602226  0.64353131    -0.16000
F1870       F  0.75790591  0.21591825  0.61643412    -0.14600
F1871       F  0.78751853  0.21699660  0.61589191    -0.14600
F1872       F  0.78386065  0.24613714  0.64404621    -0.16000
C1873       C  0.55088323  0.90041625  0.07169789     0.14100
C1874       C  0.54684364  0.89713970  0.08377718     0.01000
C1875       C  0.54078776  0.90096561  0.08913925     0.16000
C1876       C  0.53867768  0.90783726  0.08254715     0.25400
C1877       C  0.54266053  0.91113643  0.07043051    -0.40900
C1878       C  0.54888145  0.90743209  0.06510819     0.32500
C1879       C  0.54861070  0.88954486  0.09086558     0.01100
F1880       F  0.53673749  0.89787159  0.10075233    -0.13200
F1881       F  0.55273507  0.91032314  0.05338587    -0.13700
C1882       C  0.55423695  0.89252102  0.10207490     0.16000
C1883       C  0.55461558  0.88508298  0.10979063     0.25400
C1884       C  0.54927278  0.87444439  0.10651998    -0.40800
C1885       C  0.54403358  0.87157010  0.09495692     0.32400
C1886       C  0.54374328  0.87906057  0.08721073     0.14100
F1887       F  0.55921748  0.90265474  0.10566314    -0.13200
F1888       F  0.53865418  0.86144141  0.09142496    -0.13700
F1889       F  0.56022819  0.88834038  0.12047947    -0.16000
F1890       F  0.53821040  0.87598252  0.07644446    -0.14600
F1891       F  0.55677524  0.89684062  0.06631352    -0.14600
F1892       F  0.53287536  0.91141260  0.08816997    -0.16000
C1893       C  0.44755214  0.92763746  0.05422515     0.14100
C1894       C  0.45719604  0.93672680  0.05273695     0.01000
C1895       C  0.45757775  0.94628755  0.05100462     0.16000
C1896       C  0.44843263  0.94674774  0.05039795     0.25400
C1897       C  0.43869679  0.93760862  0.05141001    -0.40900
C1898       C  0.43835255  0.92805602  0.05354694     0.32500
C1899       C  0.46686763  0.93624696  0.05202184     0.01100
F1900       F  0.46685520  0.95518744  0.04975574    -0.13200
F1901       F  0.42913676  0.91904527  0.05433048    -0.13700
C1902       C  0.47208172  0.93813903  0.04056612     0.16000
C1903       C  0.48163469  0.93851176  0.03983903     0.25400
C1904       C  0.48613697  0.93696129  0.05056968    -0.40800
C1905       C  0.48074887  0.93471865  0.06198917     0.32400
C1906       C  0.47117027  0.93439996  0.06271308     0.14100
F1907       F  0.46792039  0.93970571  0.03007855    -0.13200
F1908       F  0.48499251  0.93336941  0.07253655    -0.13700
F1909       F  0.48645632  0.94031627  0.02859439    -0.16000
F1910       F  0.46629020  0.93269817  0.07390462    -0.14600
F1911       F  0.44704244  0.91830488  0.05578054    -0.14600
F1912       F  0.44914210  0.95617426  0.04890440    -0.16000
C1913       C  0.66620706  0.12274473  0.88943846     0.14100
C1914       C  0.66046835  0.11218822  0.88611017     0.01000
C1915       C  0.66325844  0.10875175  0.87534275     0.16000
C1916       C  0.67147950  0.11581765  0.86782347     0.25400
C1917       C  0.67702522  0.12647105  0.87090270    -0.40900
C1918       C  0.67443063  0.12982858  0.88192928     0.32500
C1919       C  0.65121010  0.10492180  0.89348294     0.01100
F1920       F  0.65795419  0.09854830  0.87206736    -0.13200
F1921       F  0.67944109  0.14005328  0.88509491    -0.13700
C1922       C  0.64129784  0.10045578  0.88809331     0.16000
C1923       C  0.63245373  0.09409671  0.89518059     0.25400
C1924       C  0.63334894  0.09199967  0.90779613    -0.40800
C1925       C  0.64330752  0.09626872  0.91310648     0.32400
C1926       C  0.65216269  0.10273517  0.90601654     0.14100
F1927       F  0.64016720  0.10244829  0.87600255    -0.13200
F1928       F  0.64445835  0.09446742  0.92525967    -0.13700
F1929       F  0.62301411  0.08982978  0.88959927    -0.16000
F1930       F  0.66168366  0.10687497  0.91136686    -0.14600
F1931       F  0.66350702  0.12628005  0.89965638    -0.14600
F1932       F  0.67404140  0.11222354  0.85754547    -0.16000
C1933       C  0.57392564  0.00327503  0.97146964     0.14100
C1934       C  0.57875084  0.00522214  0.98317764     0.01000
C1935       C  0.58714338  0.01516615  0.98578524     0.16000
C1936       C  0.59038083  0.02320210  0.97697610     0.25400
C1937       C  0.58511801  0.02141779  0.96553408    -0.40900
C1938       C  0.57705169  0.01130408  0.96273660     0.32500
C1939       C  0.57403050  0.99731046  0.99315378     0.01100
F1940       F  0.59185478  0.01719917  0.99709891    -0.13200
F1941       F  0.57199056  0.00925739  0.95164896    -0.13700
C1942       C  0.57555345  0.98870312  0.99366886     0.16000
C1943       C  0.57012721  0.98073893  0.00242918     0.25400
C1944       C  0.56300426  0.98123778  0.01071554    -0.40800
C1945       C  0.56186643  0.99013539  0.01043160     0.32400
C1946       C  0.56728149  0.99803529  0.00170555     0.14100
F1947       F  0.58209110  0.98789816  0.98547785    -0.13200
F1948       F  0.55548129  0.99123165  0.01858597    -0.13700
F1949       F  0.57146611  0.97233148  0.00234339    -0.16000
F1950       F  0.56565877  0.00627219  0.00129886    -0.14600
F1951       F  0.56577213  0.99372896  0.96878552    -0.14600
F1952       F  0.59811756  0.03288015  0.98002074    -0.16000
C1953       C  0.44639093  0.09661931  0.88666053     0.14100
C1954       C  0.44129582  0.10130954  0.89247605     0.01000
C1955       C  0.43816373  0.09890886  0.90498436     0.16000
C1956       C  0.44010785  0.09189087  0.91159395     0.25400
C1957       C  0.44538013  0.08731863  0.90583039    -0.40900
C1958       C  0.44847092  0.08973836  0.89328160     0.32500
C1959       C  0.43951527  0.10887945  0.88546190     0.01100
F1960       F  0.43321880  0.10336199  0.91076778    -0.13200
F1961       F  0.45333482  0.08528153  0.88731820    -0.13700
C1962       C  0.43252051  0.10554967  0.87543010     0.16000
C1963       C  0.43159078  0.11281069  0.86800109     0.25400
C1964       C  0.43766319  0.12353944  0.87048427    -0.40800
C1965       C  0.44439215  0.12682352  0.88082106     0.32400
C1966       C  0.44532484  0.11954457  0.88822568     0.14100
F1967       F  0.42666984  0.09525300  0.87277032    -0.13200
F1968       F  0.45050242  0.13710927  0.88334739    -0.13700
F1969       F  0.42470881  0.10934299  0.85841614    -0.16000
F1970       F  0.45225696  0.12293496  0.89775598    -0.14600
F1971       F  0.44951293  0.09885697  0.87458737    -0.14600
F1972       F  0.43714671  0.08984109  0.92373143    -0.16000
C1973       C  0.41208115  0.99513188  0.00439519     0.14100
C1974       C  0.40690456  0.99362610  0.99297855     0.01000
C1975       C  0.39836892  0.98380818  0.99017707     0.16000
C1976       C  0.39541263  0.97544601  0.99840312     0.25400
C1977       C  0.40109130  0.97680461  0.00939269    -0.40900
C1978       C  0.40924063  0.98676230  0.01250251     0.32500
C1979       C  0.41155248  0.00175380  0.98326687     0.01100
F1980       F  0.39330637  0.98220975  0.97914906    -0.13200
F1981       F  0.41473781  0.98827417  0.02317154    -0.13700
C1982       C  0.41653608  0.00016727  0.97308225     0.16000
C1983       C  0.42224860  0.00821236  0.96466788     0.25400
C1984       C  0.42307002  0.01801759  0.96625306    -0.40800
C1985       C  0.41768614  0.01947787  0.97615104     0.32400
C1986       C  0.41204238  0.01140977  0.98468860     0.14100
F1987       F  0.41633139  0.99096104  0.97167598    -0.13200
F1988       F  0.41840744  0.02887291  0.97801115    -0.13700
F1989       F  0.42712101  0.00644181  0.95504926    -0.16000
F1990       F  0.40733176  0.01310180  0.99454952    -0.14600
F1991       F  0.42040861  0.00452050  0.00723540    -0.14600
F1992       F  0.38760140  0.96586724  0.99513789    -0.16000
C1993       C  0.51131686  0.05175742  0.92382040     0.14100
C1994       C  0.52030295  0.06152625  0.92513746     0.01000
C1995       C  0.51933694  0.07040968  0.92667326     0.16000
C1996       C  0.50949657  0.06951699  0.92707449     0.25400
C1997       C  0.50046540  0.05970434  0.92595934    -0.40900
C1998       C  0.50148838  0.05084292  0.92423016     0.32500
C1999       C  0.53061195  0.06228327  0.92562008     0.01100
F2000       F  0.52791740  0.07988984  0.92825988    -0.13200
F2001       F  0.49297671  0.04129341  0.92275425    -0.13700
C2002       C  0.53787399  0.06706038  0.91594761     0.16000
C2003       C  0.54737098  0.06716469  0.91621205     0.25400
C2004       C  0.54971667  0.06248759  0.92618005    -0.40800
C2005       C  0.54254926  0.05806697  0.93605889     0.32400
C2006       C  0.53308797  0.05792502  0.93573550     0.14100
F2007       F  0.53560483  0.07129782  0.90605974    -0.13200
F2008       F  0.54475412  0.05401540  0.94618515    -0.13700
F2009       F  0.55404617  0.07143045  0.90648290    -0.16000
F2010       F  0.52630855  0.05353379  0.94535351    -0.14600
F2011       F  0.51208544  0.04308581  0.92215026    -0.14600
F2012       F  0.50880355  0.07818197  0.92915043    -0.16000
C2013       C  0.53439694  0.89308771  0.39713915     0.14100
C2014       C  0.54379196  0.89695137  0.39058550     0.01000
C2015       C  0.55155075  0.90737877  0.39231187     0.16000
C2016       C  0.54985808  0.91390828  0.40027406     0.25400
C2017       C  0.54034491  0.91011674  0.40664452    -0.40900
C2018       C  0.53269244  0.89958096  0.40511271     0.32500
C2019       C  0.54547022  0.89007678  0.38196341     0.01100
F2020       F  0.56066166  0.91131482  0.38598619    -0.13200
F2021       F  0.52359862  0.89549437  0.41150154    -0.13700
C2022       C  0.53997270  0.88676258  0.37067132     0.16000
C2023       C  0.54149498  0.88019617  0.36257913     0.25400
C2024       C  0.54845893  0.87670181  0.36571469    -0.40800
C2025       C  0.55390450  0.88000723  0.37708973     0.32400
C2026       C  0.55246824  0.88667900  0.38507732     0.14100
F2027       F  0.53316388  0.88995004  0.36745567    -0.13200
F2028       F  0.56083660  0.87700319  0.38036458    -0.13700
F2029       F  0.53592850  0.87702986  0.35184557    -0.16000
F2030       F  0.55783341  0.88974422  0.39595920    -0.14600
F2031       F  0.52689057  0.88297040  0.39587941    -0.14600
F2032       F  0.55735777  0.92404464  0.40130461    -0.16000
C2033       C  0.47052080  0.93460413  0.41856358     0.14100
C2034       C  0.46620884  0.93681051  0.42903784     0.01000
C2035       C  0.47114086  0.93832769  0.44066722     0.16000
C2036       C  0.48046598  0.93824380  0.44169954     0.25400
C2037       C  0.48498784  0.93640889  0.43117711    -0.40900
C2038       C  0.47978785  0.93431831  0.41964892     0.32500
C2039       C  0.45687395  0.93801680  0.42789911     0.01100
F2040       F  0.46691709  0.93992372  0.45109060    -0.13200
F2041       F  0.48393818  0.93253987  0.40929008    -0.13700
C2042       C  0.44761369  0.93017145  0.42263355     0.16000
C2043       C  0.43879516  0.93129276  0.42199777     0.25400
C2044       C  0.43890124  0.94020656  0.42696378    -0.40800
C2045       C  0.44830096  0.94805733  0.43220745     0.32400
C2046       C  0.45715701  0.94704022  0.43243283     0.14100
F2047       F  0.44699774  0.92126149  0.41834653    -0.13200
F2048       F  0.44905268  0.95671643  0.43745840    -0.13700
F2049       F  0.43022854  0.92357919  0.41641681    -0.16000
F2050       F  0.46609957  0.95497353  0.43712841    -0.14600
F2051       F  0.46602579  0.93318359  0.40716884    -0.14600
F2052       F  0.48502250  0.93985989  0.45307852    -0.16000
C2053       C  0.64887320  0.10265397  0.57431303     0.14100
C2054       C  0.64709711  0.10524308  0.58633187     0.01000
C2055       C  0.63684509  0.10133068  0.59045567     0.16000
C2056       C  0.62849263  0.09494154  0.58273155     0.25400
C2057       C  0.63020812  0.09232316  0.57065708    -0.40900
C2058       C  0.64050456  0.09622656  0.56654634     0.32500
C2059       C  0.65586578  0.11204242  0.59464102     0.01100
F2060       F  0.63491644  0.10380555  0.60197441    -0.13200
F2061       F  0.64249069  0.09403958  0.55490843    -0.13700
C2062       C  0.66287293  0.12238527  0.59125003     0.16000
C2063       C  0.67076192  0.12897985  0.59945502     0.25400
C2064       C  0.67177342  0.12534024  0.61122629    -0.40800
C2065       C  0.66483438  0.11491602  0.61449811     0.32400
C2066       C  0.65697224  0.10834359  0.60628087     0.14100
F2067       F  0.66183753  0.12620816  0.58016337    -0.13200
F2068       F  0.66577448  0.11098686  0.62554842    -0.13700
F2069       F  0.67712403  0.13904115  0.59606929    -0.16000
F2070       F  0.65044848  0.09830939  0.60965819    -0.14600
F2071       F  0.65872030  0.10626011  0.57016011    -0.14600
F2072       F  0.61872242  0.09110088  0.58726290    -0.16000
C2073       C  0.57517046  0.98800528  0.48478342     0.14100
C2074       C  0.57509874  0.99737497  0.48305732     0.01000
C2075       C  0.56956155  0.99826913  0.47298743     0.16000
C2076       C  0.56376978  0.98978416  0.46512694     0.25400
C2077       C  0.56351190  0.98027001  0.46708069    -0.40900
C2078       C  0.56952025  0.97954397  0.47674337     0.32500
C2079       C  0.57966039  0.00579491  0.49248780     0.01100
F2080       F  0.56926210  0.00718776  0.47122476    -0.13200
F2081       F  0.56935682  0.97044405  0.47892228    -0.13700
C2082       C  0.58788595  0.01574437  0.48939111     0.16000
C2083       C  0.59101839  0.02407925  0.49774326     0.25400
C2084       C  0.58583536  0.02257864  0.50920101    -0.40800
C2085       C  0.57789971  0.01251859  0.51245928     0.32400
C2086       C  0.57488106  0.00420642  0.50421201     0.14100
F2087       F  0.59258165  0.01745403  0.47807769    -0.13200
F2088       F  0.57281906  0.01079589  0.52351696    -0.13700
F2089       F  0.59855955  0.03373088  0.49424789    -0.16000
F2090       F  0.56681640  0.99472293  0.50735273    -0.14600
F2091       F  0.58040377  0.98694722  0.49452557    -0.14600
F2092       F  0.55820702  0.99079711  0.45574036    -0.16000
C2093       C  0.45264161  0.10176998  0.59126270     0.14100
C2094       C  0.44460428  0.10383863  0.58864552     0.01000
C2095       C  0.43801952  0.09888834  0.57848139     0.16000
C2096       C  0.43946814  0.09195707  0.57099366     0.25400
C2097       C  0.44760477  0.08992166  0.57350437    -0.40900
C2098       C  0.45413943  0.09488881  0.58379947     0.32500
C2099       C  0.44315470  0.11116917  0.59661539     0.01100
F2100       F  0.43014796  0.10073545  0.57585906    -0.13200
F2101       F  0.46184455  0.09291972  0.58690050    -0.13700
C2102       C  0.44595134  0.12115129  0.59224315     0.16000
C2103       C  0.44538047  0.12838181  0.60014370     0.25400
C2104       C  0.44191354  0.12571365  0.61257918    -0.40800
C2105       C  0.43878914  0.11553951  0.61675712     0.32400
C2106       C  0.43948107  0.10838402  0.60887007     0.14100
F2107       F  0.44962480  0.12402607  0.58044709    -0.13200
F2108       F  0.43494184  0.11242640  0.62843810    -0.13700
F2109       F  0.44869984  0.13812639  0.59574532    -0.16000
F2110       F  0.43659295  0.09870553  0.61320689    -0.14600
F2111       F  0.45911564  0.10651138  0.60103497    -0.14600
F2112       F  0.43306606  0.08747412  0.56110729    -0.16000
C2113       C  0.41311223  0.00092992  0.50806839     0.14100
C2114       C  0.40989416  0.00247062  0.49630447     0.01000
C2115       C  0.41098110  0.01226152  0.49354460     0.16000
C2116       C  0.41605940  0.02058255  0.50196034     0.25400
C2117       C  0.42024364  0.01923354  0.51309929    -0.40900
C2118       C  0.41839578  0.00926228  0.51626921     0.32500
C2119       C  0.40713099  0.99444907  0.48641309     0.01100
F2120       F  0.40793789  0.01401161  0.48229913    -0.13200
F2121       F  0.42217575  0.00770472  0.52709051    -0.13700
C2122       C  0.39775556  0.99020980  0.47970062     0.16000
C2123       C  0.39555321  0.98272764  0.47032111     0.25400
C2124       C  0.40269674  0.97936036  0.46752904    -0.40800
C2125       C  0.41195951  0.98352952  0.47449382     0.32400
C2126       C  0.41420034  0.99106099  0.48360179     0.14100
F2127       F  0.39071086  0.99323720  0.48229131    -0.13200
F2128       F  0.41884897  0.98016149  0.47279675    -0.13700
F2129       F  0.38656066  0.97897512  0.46382012    -0.16000
F2130       F  0.42346163  0.99518721  0.48961125    -0.14600
F2131       F  0.41174481  0.99146064  0.51126684    -0.14600
F2132       F  0.41772944  0.03014872  0.49870688    -0.16000
C2133       C  0.53888259  0.07143561  0.54202217     0.14100
C2134       C  0.52924053  0.06222880  0.54278536     0.01000
C2135       C  0.52894233  0.05269157  0.54443014     0.16000
C2136       C  0.53814148  0.05236535  0.54548386     0.25400
C2137       C  0.54784694  0.06159093  0.54481225    -0.40900
C2138       C  0.54811279  0.07113164  0.54300885     0.32500
C2139       C  0.51946741  0.06255864  0.54225667     0.01100
F2140       F  0.51970922  0.04369624  0.54533398    -0.13200
F2141       F  0.55728039  0.08014020  0.54178563    -0.13700
C2142       C  0.51210399  0.05711572  0.53293302     0.16000
C2143       C  0.50262929  0.05696811  0.53284843     0.25400
C2144       C  0.50030117  0.06221524  0.54216411    -0.40800
C2145       C  0.50780154  0.06783166  0.55136496     0.32400
C2146       C  0.51729818  0.06800293  0.55138475     0.14100
F2147       F  0.51412204  0.05197737  0.52385193    -0.13200
F2148       F  0.50580478  0.07278103  0.56068770    -0.13700
F2149       F  0.49582596  0.05182097  0.52349503    -0.16000
F2150       F  0.52424190  0.07316668  0.56061535    -0.14600
F2151       F  0.53934689  0.08070925  0.54008382    -0.14600
F2152       F  0.53750143  0.04302537  0.54753048    -0.16000
C2153       C  0.10102627  0.65217119  0.07768006     0.14100
C2154       C  0.09739176  0.65811882  0.08374100     0.01000
C2155       C  0.08713094  0.65581627  0.08170185     0.16000
C2156       C  0.08049714  0.64748468  0.07396330     0.25400
C2157       C  0.08405423  0.64134632  0.06801137    -0.40900
C2158       C  0.09447979  0.64393021  0.06984165     0.32500
C2159       C  0.10421047  0.66638373  0.09264145     0.01100
F2160       F  0.08343826  0.66143872  0.08753950    -0.13200
F2161       F  0.09844323  0.63858139  0.06393684    -0.13700
C2162       C  0.10908996  0.67693351  0.08925012     0.16000
C2163       C  0.11584894  0.68466334  0.09757635     0.25400
C2164       C  0.11775073  0.68196688  0.10951715    -0.40800
C2165       C  0.11276058  0.67136119  0.11287568     0.32400
C2166       C  0.10610685  0.66366635  0.10449627     0.14100
F2167       F  0.10739545  0.67972910  0.07780885    -0.13200
F2168       F  0.11456889  0.66837725  0.12413166    -0.13700
F2169       F  0.12034099  0.69478918  0.09404017    -0.16000
F2170       F  0.10151119  0.65350754  0.10793745    -0.14600
F2171       F  0.11096225  0.65435017  0.07940030    -0.14600
F2172       F  0.07048353  0.64517949  0.07278360    -0.16000
C2173       C  0.34791564  0.89855611  0.08982320     0.14100
C2174       C  0.33810764  0.89353986  0.08410922     0.01000
C2175       C  0.33721327  0.89576647  0.07156766     0.16000
C2176       C  0.34602407  0.90293112  0.06486853     0.25400
C2177       C  0.35585323  0.90789652  0.07060784    -0.40900
C2178       C  0.35668115  0.90566546  0.08317141     0.32500
C2179       C  0.32897725  0.88591072  0.09139095     0.01100
F2180       F  0.32781549  0.89105813  0.06584983    -0.13200
F2181       F  0.36596375  0.91052206  0.08914818    -0.13700
C2182       C  0.32650234  0.88894534  0.10270759     0.16000
C2183       C  0.31914893  0.88151431  0.11076031     0.25400
C2184       C  0.31404437  0.87089098  0.10760704    -0.40800
C2185       C  0.31596658  0.86792645  0.09585638     0.32400
C2186       C  0.32342397  0.87538825  0.08783112     0.14100
F2187       F  0.33146125  0.89912040  0.10612512    -0.13200
F2188       F  0.31116244  0.85775258  0.09247371    -0.13700
F2189       F  0.31708829  0.88472179  0.12171650    -0.16000
F2190       F  0.32568672  0.87224830  0.07695360    -0.14600
F2191       F  0.34903942  0.89642299  0.10186010    -0.14600
F2192       F  0.34498989  0.90476336  0.05268907    -0.16000
C2193       C  0.20152185  0.77580317  0.13491604     0.14100
C2194       C  0.20977809  0.77449261  0.13077495     0.01000
C2195       C  0.20762406  0.76465390  0.12641856     0.16000
C2196       C  0.19746778  0.75615161  0.12688129     0.25400
C2197       C  0.18936887  0.75734809  0.13187711    -0.40900
C2198       C  0.19144438  0.76730018  0.13557710     0.32500
C2199       C  0.22065864  0.78309745  0.13226540     0.01100
F2200       F  0.21545184  0.76311620  0.12252083    -0.13200
F2201       F  0.18371921  0.76874209  0.14011348    -0.13700
C2202       C  0.22422809  0.78742856  0.14413518     0.16000
C2203       C  0.23443200  0.79544841  0.14583731     0.25400
C2204       C  0.24145185  0.79922110  0.13573386    -0.40800
C2205       C  0.23784741  0.79492451  0.12379395     0.32400
C2206       C  0.22754019  0.78694976  0.12208539     0.14100
F2207       F  0.21783940  0.78375549  0.15420905    -0.13200
F2208       F  0.24433191  0.79822939  0.11380303    -0.13700
F2209       F  0.23730380  0.79964789  0.15739923    -0.16000
F2210       F  0.22425812  0.78304375  0.11046849    -0.14600
F2211       F  0.20329646  0.78528962  0.13872587    -0.14600
F2212       F  0.19571229  0.74661274  0.12335896    -0.16000
C2213       C  0.13091070  0.70355294  0.25438977     0.14100
C2214       C  0.13970769  0.70979493  0.24704965     0.01000
C2215       C  0.14925963  0.71610712  0.25298315     0.16000
C2216       C  0.14996849  0.71644012  0.26601111     0.25400
C2217       C  0.14109190  0.71051527  0.27346269    -0.40900
C2218       C  0.13157794  0.70391565  0.26747039     0.32500
C2219       C  0.13894421  0.71016293  0.23324399     0.01100
F2220       F  0.15795123  0.72198051  0.24610958    -0.13200
F2221       F  0.12279680  0.69816386  0.27422041    -0.13700
C2222       C  0.14136400  0.71957653  0.22736623     0.16000
C2223       C  0.14138518  0.72026545  0.21434831     0.25400
C2224       C  0.13904784  0.71155106  0.20685994    -0.40800
C2225       C  0.13622479  0.70199920  0.21277446     0.32400
C2226       C  0.13617861  0.70132297  0.22585436     0.14100
F2227       F  0.14373205  0.72815228  0.23428460    -0.13200
F2228       F  0.13400770  0.69343058  0.20594236    -0.13700
F2229       F  0.14360910  0.72948279  0.20909022    -0.16000
F2230       F  0.13385673  0.69213998  0.23129493    -0.14600
F2231       F  0.12157308  0.69742242  0.24889255    -0.14600
F2232       F  0.15942048  0.72248685  0.27128457    -0.16000
C2233       C  0.32023820  0.88323046  0.38661689     0.14100
C2234       C  0.33064760  0.88600297  0.38448552     0.01000
C2235       C  0.33299970  0.88145584  0.37441255     0.16000
C2236       C  0.32513040  0.87436658  0.36653949     0.25400
C2237       C  0.31470093  0.87158400  0.36862084    -0.40900
C2238       C  0.31232371  0.87603423  0.37880773     0.32500
C2239       C  0.33909000  0.89361969  0.39270788     0.01100
F2240       F  0.34297988  0.88402114  0.37206758    -0.13200
F2241       F  0.30238607  0.87367984  0.38097920    -0.13700
C2242       C  0.34539223  0.89068384  0.39930611     0.16000
C2243       C  0.35369380  0.89795432  0.40653722     0.25400
C2244       C  0.35586438  0.90833581  0.40737507    -0.40800
C2245       C  0.34941896  0.91122416  0.40097257     0.32400
C2246       C  0.34112953  0.90393722  0.39367904     0.14100
F2247       F  0.34347695  0.88072728  0.39877136    -0.13200
F2248       F  0.35144571  0.92121992  0.40124657    -0.13700
F2249       F  0.35954395  0.89478343  0.41284831    -0.16000
F2250       F  0.33534287  0.90706330  0.38715043    -0.14600
F2251       F  0.31773496  0.88743630  0.39633907    -0.14600
F2252       F  0.32771156  0.87006264  0.35699822    -0.16000
C2253       C  0.29393094  0.83720616  0.22710545     0.14100
C2254       C  0.29522612  0.84649673  0.23222623     0.01000
C2255       C  0.29753266  0.85491544  0.22425573     0.16000
C2256       C  0.29815031  0.85392352  0.21130535     0.25400
C2257       C  0.29631355  0.84442188  0.20611606    -0.40900
C2258       C  0.29446686  0.83617456  0.21419321     0.32500
C2259       C  0.29367527  0.84716497  0.24580567     0.01100
F2260       F  0.29900064  0.86403794  0.22901913    -0.13200
F2261       F  0.29307742  0.82703908  0.20957221    -0.13700
C2262       C  0.30022551  0.84624479  0.25452973     0.16000
C2263       C  0.29840248  0.84630753  0.26735273     0.25400
C2264       C  0.28987640  0.84709399  0.27166542    -0.40800
C2265       C  0.28332466  0.84801951  0.26292833     0.32400
C2266       C  0.28526447  0.84814864  0.25011020     0.14100
F2267       F  0.30833876  0.84518674  0.25060436    -0.13200
F2268       F  0.27508146  0.84887365  0.26681148    -0.13700
F2269       F  0.30470240  0.84512903  0.27554303    -0.16000
F2270       F  0.27873753  0.84890529  0.24186947    -0.14600
F2271       F  0.29171099  0.82895982  0.23459223    -0.14600
F2272       F  0.29997779  0.86206653  0.20384690    -0.16000
C2273       C  0.22135975  0.79263372  0.35870188     0.14100
C2274       C  0.21734756  0.78417228  0.35040289     0.01000
C2275       C  0.22337717  0.78448552  0.34015281     0.16000
C2276       C  0.23314019  0.79321589  0.33799979     0.25400
C2277       C  0.23712509  0.80185737  0.34609565    -0.40900
C2278       C  0.23121248  0.80137722  0.35663535     0.32500
C2279       C  0.20659842  0.77530193  0.35172178     0.01100
F2280       F  0.21964356  0.77641749  0.33198332    -0.13200
F2281       F  0.23472202  0.80956376  0.36459202    -0.13700
C2282       C  0.19828022  0.77610584  0.34679743     0.16000
C2283       C  0.18835860  0.76731981  0.34604709     0.25400
C2284       C  0.18652869  0.75756819  0.35034367    -0.40800
C2285       C  0.19472691  0.75689637  0.35597289     0.32400
C2286       C  0.20472125  0.76568591  0.35652856     0.14100
F2287       F  0.19990251  0.78530583  0.34209539    -0.13200
F2288       F  0.19325250  0.74759402  0.36008630    -0.13700
F2289       F  0.18056753  0.76827611  0.34078744    -0.16000
F2290       F  0.21267183  0.76472105  0.36124625    -0.14600
F2291       F  0.21562699  0.79251795  0.36863405    -0.14600
F2292       F  0.23870475  0.79317697  0.32796484    -0.16000
C2293       C  0.65191223  0.54576891  0.87215414     0.14100
C2294       C  0.65384062  0.54963432  0.88438758     0.01000
C2295       C  0.66408237  0.55486707  0.88884564     0.16000
C2296       C  0.67231541  0.55624773  0.88112804     0.25400
C2297       C  0.67042685  0.55249903  0.86876237    -0.40900
C2298       C  0.66010648  0.54721452  0.86439274     0.32500
C2299       C  0.64506553  0.54794671  0.89250566     0.01100
F2300       F  0.66608190  0.55856364  0.90070862    -0.13200
F2301       F  0.65787525  0.54317011  0.85270077    -0.13700
C2302       C  0.63853975  0.53807905  0.89762683     0.16000
C2303       C  0.62985960  0.53621485  0.90469262     0.25400
C2304       C  0.62747179  0.54419300  0.90670381    -0.40800
C2305       C  0.63414503  0.55414923  0.90170310     0.32400
C2306       C  0.64287885  0.55600045  0.89467481     0.14100
F2307       F  0.64059966  0.53022727  0.89577410    -0.13200
F2308       F  0.63201275  0.56198537  0.90318175    -0.13700
F2309       F  0.62392551  0.52662765  0.90976990    -0.16000
F2310       F  0.64904866  0.56557638  0.88967554    -0.14600
F2311       F  0.64204509  0.54058604  0.86772184    -0.14600
F2312       F  0.68214094  0.56148862  0.88565957    -0.16000
C2313       C  0.87393081  0.55448395  0.88420506     0.14100
C2314       C  0.88383640  0.55736968  0.87951167     0.01000
C2315       C  0.88644574  0.56144228  0.86737770     0.16000
C2316       C  0.87911618  0.56218066  0.85987167     0.25400
C2317       C  0.86894019  0.55872824  0.86430011    -0.40900
C2318       C  0.86655026  0.55510159  0.87670343     0.32500
C2319       C  0.89107802  0.55534962  0.88696969     0.01100
F2320       F  0.89596443  0.56430154  0.86258915    -0.13200
F2321       F  0.85691732  0.55162129  0.88147495    -0.13700
C2322       C  0.88806516  0.54512940  0.89060727     0.16000
C2323       C  0.89464057  0.54303904  0.89783350     0.25400
C2324       C  0.90449802  0.55113842  0.90152850    -0.40800
C2325       C  0.90757162  0.56139179  0.89770009     0.32400
C2326       C  0.90091759  0.56346450  0.89050047     0.14100
F2327       F  0.87871945  0.53709944  0.88703516    -0.13200
F2328       F  0.91710502  0.56941129  0.90064180    -0.13700
F2329       F  0.89116652  0.53306499  0.90144554    -0.16000
F2330       F  0.90403679  0.57342239  0.88710481    -0.14600
F2331       F  0.87131261  0.55080875  0.89603962    -0.14600
F2332       F  0.88202917  0.56624180  0.84824144    -0.16000
C2333       C  0.77165234  0.54229729  0.84299723     0.14100
C2334       C  0.77238281  0.55083918  0.84958149     0.01000
C2335       C  0.78199970  0.55810858  0.85478894     0.16000
C2336       C  0.79082834  0.55714749  0.85292137     0.25400
C2337       C  0.79022604  0.54890974  0.84574448    -0.40900
C2338       C  0.78048001  0.54135491  0.84106973     0.32500
C2339       C  0.76348887  0.55281416  0.84969888     0.01100
F2340       F  0.78291109  0.56636190  0.86134036    -0.13200
F2341       F  0.77951499  0.53311641  0.83443597    -0.13700
C2342       C  0.75374625  0.54552257  0.85466737     0.16000
C2343       C  0.74521822  0.54713789  0.85362817     0.25400
C2344       C  0.74628574  0.55601895  0.84747701    -0.40800
C2345       C  0.75612611  0.56343857  0.84290868     0.32400
C2346       C  0.76460292  0.56185118  0.84399605     0.14100
F2347       F  0.75245836  0.53676581  0.86034021    -0.13200
F2348       F  0.75754938  0.57225310  0.83725298    -0.13700
F2349       F  0.73582561  0.53976439  0.85803721    -0.16000
F2350       F  0.77383959  0.56896555  0.83894076    -0.14600
F2351       F  0.76250066  0.53516511  0.83781275    -0.14600
F2352       F  0.80008303  0.56466325  0.85745186    -0.16000
C2353       C  0.65450186  0.54890851  0.60633520     0.14100
C2354       C  0.65670089  0.55332921  0.59435604     0.01000
C2355       C  0.66706723  0.55901885  0.59034819     0.16000
C2356       C  0.67514113  0.56028138  0.59823697     0.25400
C2357       C  0.67296965  0.55597025  0.61033860    -0.40900
C2358       C  0.66253813  0.55022226  0.61426335     0.32500
C2359       C  0.64809938  0.55189513  0.58609953     0.01100
F2360       F  0.66934831  0.56327232  0.57874851    -0.13200
F2361       F  0.66005681  0.54561104  0.62566149    -0.13700
C2362       C  0.64650503  0.56026876  0.58343291     0.16000
C2363       C  0.63785372  0.55869242  0.57647389     0.25400
C2364       C  0.63065660  0.54869088  0.57204804    -0.40800
C2365       C  0.63249337  0.54039428  0.57442241     0.32400
C2366       C  0.64110902  0.54198682  0.58141282     0.14100
F2367       F  0.65309648  0.56988624  0.58803198    -0.13200
F2368       F  0.62598399  0.53072277  0.56991151    -0.13700
F2369       F  0.63625094  0.56684308  0.57465999    -0.16000
F2370       F  0.64261221  0.53382405  0.58369398    -0.14600
F2371       F  0.64452909  0.54337344  0.61039442    -0.14600
F2372       F  0.68508468  0.56594675  0.59414123    -0.16000
C2373       C  0.69972724  0.56827172  0.72541448     0.14100
C2374       C  0.70065852  0.56113311  0.73316137     0.01000
C2375       C  0.70148824  0.55296547  0.72772366     0.16000
C2376       C  0.70163514  0.55207365  0.71473688     0.25400
C2377       C  0.70084668  0.55928696  0.70691898    -0.40900
C2378       C  0.69973503  0.56731424  0.71238952     0.32500
C2379       C  0.70113383  0.56234756  0.74691333     0.01100
F2380       F  0.70241743  0.54598821  0.73502542    -0.13200
F2381       F  0.69909646  0.57448893  0.70515255    -0.13700
C2382       C  0.69303036  0.55504967  0.75446396     0.16000
C2383       C  0.69377103  0.55585252  0.76749757     0.25400
C2384       C  0.70272759  0.56387507  0.77319929    -0.40800
C2385       C  0.71080168  0.57122068  0.76559762     0.32400
C2386       C  0.70996650  0.57050814  0.75257093     0.14100
F2387       F  0.68445348  0.54706062  0.74918670    -0.13200
F2388       F  0.71949940  0.57912361  0.77078332    -0.13700
F2389       F  0.68594543  0.54848734  0.77452341    -0.16000
F2390       F  0.71792599  0.57760452  0.74545392    -0.14600
F2391       F  0.69887781  0.57620541  0.73048708    -0.14600
F2392       F  0.70244628  0.54407132  0.70981116    -0.16000
C2393       C  0.84383555  0.54686707  0.72167934     0.14100
C2394       C  0.84268480  0.55391586  0.72932455     0.01000
C2395       C  0.84211894  0.56221629  0.72387611     0.16000
C2396       C  0.84241147  0.56331437  0.71092453     0.25400
C2397       C  0.84328442  0.55611623  0.70317108    -0.40900
C2398       C  0.84419447  0.54798225  0.70868084     0.32500
C2399       C  0.84162518  0.55243680  0.74297080     0.01100
F2400       F  0.84093805  0.56907465  0.73111633    -0.13200
F2401       F  0.84491409  0.54081778  0.70151887    -0.13700
C2402       C  0.84928953  0.55972495  0.75093769     0.16000
C2403       C  0.84793220  0.55872798  0.76387885     0.25400
C2404       C  0.83879875  0.55048761  0.76902819    -0.40800
C2405       C  0.83119135  0.54312798  0.76100850     0.32400
C2406       C  0.83262557  0.54407071  0.74807775     0.14100
F2407       F  0.85802503  0.56788495  0.74614536    -0.13200
F2408       F  0.82239932  0.53497150  0.76568945    -0.13700
F2409       F  0.85534162  0.56608498  0.77132354    -0.16000
F2410       F  0.82508606  0.53699632  0.74050617    -0.14600
F2411       F  0.84446374  0.53882933  0.72682281    -0.14600
F2412       F  0.84183254  0.57144111  0.70597747    -0.16000
C2413       C  0.78303814  0.56408894  0.63597871     0.14100
C2414       C  0.77537868  0.55613636  0.62864570     0.01000
C2415       C  0.77774025  0.54932935  0.62220969     0.16000
C2416       C  0.78762943  0.55038712  0.62321299     0.25400
C2417       C  0.79525833  0.55819709  0.63083254    -0.40900
C2418       C  0.79287914  0.56511779  0.63707991     0.32500
C2419       C  0.76476500  0.55462413  0.62846266     0.01100
F2420       F  0.77038758  0.54152693  0.61516983    -0.13200
F2421       F  0.80007327  0.57289372  0.64430209    -0.13700
C2422       C  0.76262942  0.56155425  0.62192291     0.16000
C2423       C  0.75291592  0.56089383  0.62308396     0.25400
C2424       C  0.74528443  0.55339645  0.63100345    -0.40800
C2425       C  0.74731459  0.54616906  0.63706928     0.32400
C2426       C  0.75696319  0.54677377  0.63578882     0.14100
F2427       F  0.77009323  0.56918200  0.61477066    -0.13200
F2428       F  0.74000084  0.53861245  0.64444440    -0.13700
F2429       F  0.75124123  0.56800219  0.61712626    -0.16000
F2430       F  0.75887635  0.54000605  0.64219795    -0.14600
F2431       F  0.78085243  0.57065299  0.64242446    -0.14600
F2432       F  0.78953555  0.54343350  0.61725709    -0.16000
C2433       C  0.89921020  0.34127874  0.58326233     0.14100
C2434       C  0.88909309  0.33907840  0.58620131     0.01000
C2435       C  0.88567234  0.34578913  0.58181921     0.16000
C2436       C  0.89231730  0.35467477  0.57490515     0.25400
C2437       C  0.90259127  0.35710672  0.57227748    -0.40900
C2438       C  0.90590032  0.35019759  0.57639111     0.32500
C2439       C  0.88228657  0.33013693  0.59439169     0.01100
F2440       F  0.87597490  0.34392850  0.58460079    -0.13200
F2441       F  0.91574954  0.35226176  0.57426217    -0.13700
C2442       C  0.88548035  0.32953602  0.60654540     0.16000
C2443       C  0.87883702  0.32155911  0.61463882     0.25400
C2444       C  0.86874429  0.31406102  0.61083685    -0.40800
C2445       C  0.86568458  0.31450596  0.59848855     0.32400
C2446       C  0.87240121  0.32244667  0.59036788     0.14100
F2447       F  0.89494183  0.33691031  0.61075334    -0.13200
F2448       F  0.85604740  0.30754768  0.59434567    -0.13700
F2449       F  0.88236160  0.32119381  0.62619725    -0.16000
F2450       F  0.86919924  0.32268940  0.57857260    -0.14600
F2451       F  0.90265281  0.33481825  0.58716747    -0.14600
F2452       F  0.88862535  0.36085535  0.57073917    -0.16000
C2453       C  0.89250574  0.55080100  0.57917021     0.14100
C2454       C  0.88273993  0.54211961  0.58177468     0.01000
C2455       C  0.88039369  0.53234090  0.57711854     0.16000
C2456       C  0.88774349  0.53119030  0.57021221     0.25400
C2457       C  0.89768315  0.53980714  0.56789474    -0.40900
C2458       C  0.89991945  0.54966676  0.57230849     0.32500
C2459       C  0.87517573  0.54314530  0.58983386     0.01100
F2460       F  0.87093293  0.52386922  0.57926080    -0.13200
F2461       F  0.90942943  0.55814537  0.57051908    -0.13700
C2462       C  0.87124854  0.54966761  0.58638573     0.16000
C2463       C  0.86438117  0.55086124  0.59427561     0.25400
C2464       C  0.86140612  0.54561408  0.60581132    -0.40800
C2465       C  0.86513837  0.53886847  0.60906084     0.32400
C2466       C  0.87195343  0.53765836  0.60116052     0.14100
F2467       F  0.87408440  0.55489123  0.57537171    -0.13200
F2468       F  0.86211015  0.53333719  0.61985548    -0.13700
F2469       F  0.86098324  0.55746201  0.59083514    -0.16000
F2470       F  0.87562676  0.53130710  0.60473189    -0.14600
F2471       F  0.89502162  0.56031831  0.58372872    -0.14600
F2472       F  0.88502114  0.52162132  0.56566338    -0.16000
C2473       C  0.91792000  0.46846656  0.54935367     0.14100
C2474       C  0.92720752  0.46814814  0.54928168     0.01000
C2475       C  0.93671565  0.47747943  0.54820750     0.16000
C2476       C  0.93694963  0.48696541  0.54694003     0.25400
C2477       C  0.92766171  0.48731098  0.54676372    -0.40900
C2478       C  0.91813957  0.47798333  0.54813152     0.32500
C2479       C  0.92708735  0.45811255  0.54969566     0.01100
F2480       F  0.94580732  0.47738899  0.54840283    -0.13200
F2481       F  0.90902515  0.47801156  0.54772857    -0.13700
C2482       C  0.93130259  0.45532064  0.53970756     0.16000
C2483       C  0.93198127  0.44628467  0.54028122     0.25400
C2484       C  0.92848801  0.43983209  0.55091283    -0.40800
C2485       C  0.92389314  0.44242106  0.56074722     0.32400
C2486       C  0.92319996  0.45151069  0.56013212     0.14100
F2487       F  0.93478436  0.46139065  0.52934285    -0.13200
F2488       F  0.92050890  0.43643588  0.57117588    -0.13700
F2489       F  0.93593557  0.44379498  0.53029169    -0.16000
F2490       F  0.91911266  0.45408347  0.56991573    -0.14600
F2491       F  0.90863277  0.45952685  0.55012436    -0.14600
F2492       F  0.94629519  0.49583333  0.54611538    -0.16000
C2493       C  0.09608584  0.64734000  0.39568070     0.14100
C2494       C  0.09274541  0.65428500  0.39193915     0.01000
C2495       C  0.08258669  0.65193264  0.39500875     0.16000
C2496       C  0.07588962  0.64277308  0.40153347     0.25400
C2497       C  0.07923566  0.63579187  0.40525347    -0.40900
C2498       C  0.08947901  0.63828674  0.40234242     0.32500
C2499       C  0.09983651  0.66379252  0.38460390     0.01100
F2500       F  0.07914973  0.65854669  0.39176332    -0.13200
F2501       F  0.09325999  0.63209037  0.40614139    -0.13700
C2502       C  0.09682008  0.66566684  0.37290033     0.16000
C2503       C  0.10380147  0.67411251  0.36554432     0.25400
C2504       C  0.11409158  0.68079577  0.36957466    -0.40800
C2505       C  0.11696307  0.67909117  0.38151289     0.32400
C2506       C  0.10989725  0.67075722  0.38894983     0.14100
F2507       F  0.08720507  0.65908233  0.36833854    -0.13200
F2508       F  0.12674346  0.68519158  0.38587374    -0.13700
F2509       F  0.10040062  0.67571692  0.35447329    -0.16000
F2510       F  0.11294966  0.66941361  0.40040592    -0.14600
F2511       F  0.10574041  0.64920602  0.39265018    -0.14600
F2512       F  0.06604482  0.64063907  0.40388541    -0.16000
C2513       C  0.99811913  0.58705011  0.47605858     0.14100
C2514       C  0.99694378  0.58187357  0.48745833     0.01000
C2515       C  0.00520617  0.58078275  0.49201166     0.16000
C2516       C  0.01429033  0.58433316  0.48499106     0.25400
C2517       C  0.01529839  0.58906522  0.47328376    -0.40900
C2518       C  0.00726004  0.59069101  0.46905353     0.32500
C2519       C  0.98677911  0.57660783  0.49395503     0.01100
F2520       F  0.00423978  0.57572258  0.50293090    -0.13200
F2521       F  0.00794007  0.59515427  0.45777285    -0.13700
C2522       C  0.97825330  0.56817207  0.48818016     0.16000
C2523       C  0.96899326  0.56225274  0.49474786     0.25400
C2524       C  0.96803546  0.56473716  0.50714907    -0.40800
C2525       C  0.97638336  0.57345370  0.51277427     0.32400
C2526       C  0.98574266  0.57929870  0.50625101     0.14100
F2527       F  0.97910274  0.56529223  0.47640380    -0.13200
F2528       F  0.97571380  0.57587146  0.52483046    -0.13700
F2529       F  0.96102109  0.55388117  0.48910812    -0.16000
F2530       F  0.99390194  0.58737448  0.51204561    -0.14600
F2531       F  0.99024816  0.58823622  0.47151602    -0.14600
F2532       F  0.02203402  0.58293233  0.48953136    -0.16000
C2533       C  0.08806800  0.43976110  0.40003484     0.14100
C2534       C  0.09832518  0.44759835  0.39764612     0.01000
C2535       C  0.10222867  0.45727792  0.40357693     0.16000
C2536       C  0.09584315  0.45928310  0.41131643     0.25400
C2537       C  0.08538385  0.45163875  0.41324347    -0.40900
C2538       C  0.08163723  0.44175085  0.40776952     0.32500
C2539       C  0.10474034  0.44605602  0.38822633     0.01100
F2540       F  0.11221786  0.46486631  0.40167366    -0.13200
F2541       F  0.07158504  0.43419682  0.40924856    -0.13700
C2542       C  0.10741232  0.45182017  0.37709626     0.16000
C2543       C  0.11380554  0.45081810  0.36828725     0.25400
C2544       C  0.11772078  0.44404575  0.37046533    -0.40800
C2545       C  0.11489204  0.43813859  0.38156274     0.32400
C2546       C  0.10840434  0.43909973  0.39033736     0.14100
F2547       F  0.10383205  0.45848220  0.37478878    -0.13200
F2548       F  0.11828174  0.43132399  0.38385019    -0.13700
F2549       F  0.11647656  0.45680625  0.35785760    -0.16000
F2550       F  0.10587003  0.43340516  0.40100682    -0.14600
F2551       F  0.08411767  0.43035937  0.39434962    -0.14600
F2552       F  0.09990967  0.46873778  0.41689214    -0.16000
C2553       C  0.99584099  0.42102683  0.47539409     0.14100
C2554       C  0.99807664  0.41843304  0.48714790     0.01000
C2555       C  0.00831662  0.42091814  0.48985277     0.16000
C2556       C  0.01625384  0.42617595  0.48105052     0.25400
C2557       C  0.01409364  0.42922903  0.46952309    -0.40900
C2558       C  0.00379045  0.42645501  0.46670190     0.32500
C2559       C  0.98997149  0.41432255  0.49699558     0.01100
F2560       F  0.01067081  0.41856004  0.50118846    -0.13200
F2561       F  0.00145089  0.42916392  0.45557675    -0.13700
C2562       C  0.98111340  0.40439425  0.49601303     0.16000
C2563       C  0.97292708  0.40115412  0.50461958     0.25400
C2564       C  0.97343766  0.40788189  0.51422629    -0.40800
C2565       C  0.98257274  0.41761275  0.51549358     0.32400
C2566       C  0.99071650  0.42079158  0.50695875     0.14100
F2567       F  0.98029368  0.39796209  0.48652493    -0.13200
F2568       F  0.98360638  0.42416356  0.52494026    -0.13700
F2569       F  0.96429621  0.39170609  0.50310978    -0.16000
F2570       F  0.99915663  0.43044253  0.50807141    -0.14600
F2571       F  0.98603529  0.41880068  0.47260122    -0.14600
F2572       F  0.02614404  0.42887651  0.48411622    -0.16000
C2573       C  0.04979521  0.51807754  0.42871385     0.14100
C2574       C  0.05920933  0.52687640  0.43202769     0.01000
C2575       C  0.06774855  0.52572490  0.43516919     0.16000
C2576       C  0.06687630  0.51585804  0.43497669     0.25400
C2577       C  0.05738496  0.50697903  0.43179399    -0.40900
C2578       C  0.04886601  0.50821653  0.42863185     0.32500
C2579       C  0.05988302  0.53715789  0.43261561     0.01100
F2580       F  0.07688544  0.53414642  0.43854146    -0.13200
F2581       F  0.03965155  0.49989698  0.42527129    -0.13700
C2582       C  0.05872955  0.54101152  0.44408907     0.16000
C2583       C  0.05825758  0.55019713  0.44457699     0.25400
C2584       C  0.05896996  0.55572914  0.43356348    -0.40800
C2585       C  0.06046941  0.55200261  0.42210351     0.32400
C2586       C  0.06086566  0.54275576  0.42164579     0.14100
F2587       F  0.05773848  0.53568534  0.45479231    -0.13200
F2588       F  0.06101133  0.55698935  0.41126640    -0.13700
F2589       F  0.05711739  0.55367325  0.45585935    -0.16000
F2590       F  0.06195140  0.53910696  0.41045663    -0.14600
F2591       F  0.04143293  0.51903988  0.42574968    -0.14600
F2592       F  0.07518646  0.51495460  0.43837996    -0.16000
loop_ 
_geom_bond_atom_site_label_1 
_geom_bond_atom_site_label_2 
_geom_bond_distance 
_geom_bond_site_symmetry_2 
_ccdc_geom_bond_type 
N1            N2   1.322       .  A
N1            C5   1.349       .  A
N1           Cu9   2.087       .  S
N2            C3   1.344       .  A
N2           Cu8   2.072       .  S
C3            C4   1.383       .  A
C3            H6   1.081       .  S
C4            C5   1.388       .  A
C4         C2557   1.481       .  S
C5            H7   1.081       .  S
Cu8          N11   2.072       .  S
Cu9          N19   2.088       .  S
Cu10         N12   2.080       .  S
Cu10         N18   2.081       .  S
N11          N12   1.321       .  A
N11          C15   1.344       .  A
N12          C13   1.348       .  A
C13          C14   1.388       .  A
C13          H16   1.081       .  S
C14          C15   1.385       .  A
C14        C2577   1.485       .  S
C15          H17   1.081       .  S
N18          N19   1.323       .  A
N18          C22   1.345       .  A
N19          C20   1.348       .  A
C20          C21   1.388       .  A
C20          H23   1.081       .  S
C21          C22   1.386       .  A
C21        C2537   1.487       .  S
C22          H24   1.081       .  S
N25          N26   1.321       .  A
N25          C29   1.351       .  A
N25         Cu33   2.091       .  S
N26          C27   1.341       .  A
N26         Cu32   2.061       .  S
C27          C28   1.381       .  A
C27          H30   1.081       .  S
C28          C29   1.390       .  A
C28        C2517   1.482       .  S
C29          H31   1.080       .  S
Cu32         N35   2.061       .  S
Cu33         N43   2.092       .  S
Cu34         N36   2.087       .  S
Cu34         N42   2.088       .  S
N35          N36   1.320       .  A
N35          C39   1.342       .  A
N36          C37   1.349       .  A
C37          C38   1.391       .  A
C37          H40   1.081       .  S
C38          C39   1.384       .  A
C38        C2584   1.486       .  S
C39          H41   1.081       .  S
N42          N43   1.324       .  A
N42          C46   1.345       .  A
N43          C44   1.349       .  A
C44          C45   1.390       .  A
C44          H47   1.080       .  S
C45          C46   1.388       .  A
C45        C2497   1.494       .  S
C46          H48   1.080       .  S
N49          N50   1.323       .  A
N49          C53   1.352       .  A
N49         Cu57   2.096       .  S
N50          C51   1.341       .  A
N50         Cu56   2.062       .  S
C51          C52   1.378       .  A
C51          H54   1.081       .  S
C52          C53   1.388       .  A
C52        C2524   1.476       .  S
C53          H55   1.080       .  S
Cu56         N59   2.062       .  S
Cu57         N67   2.097       .  S
Cu58         N60   2.066       .  S
Cu58         N66   2.067       .  S
N59          N60   1.319       .  A
N59          C63   1.343       .  A
N60          C61   1.345       .  A
C61          C62   1.386       .  A
C61          H64   1.081       .  S
C62          C63   1.385       .  A
C62        C2477   1.479       .  S
C63          H65   1.081       .  S
N66          N67   1.323       .  A
N66          C70   1.341       .  A
N67          C68   1.350       .  A
C68          C69   1.392       .  A
C68          H71   1.080       .  S
C69          C70   1.383       .  A
C69        C2457   1.489       .  S
C70          H72   1.080       .  S
N73          N74   1.320       .  A
N73          C77   1.353       .  A
N73         Cu81   2.100       .  S
N74          C75   1.339       .  A
N74         Cu80   2.054       .  S
C75          C76   1.382       .  A
C75          H78   1.081       .  S
C76          C77   1.395       .  A
C76        C2564   1.488       .  S
C77          H79   1.080       .  S
Cu80         N83   2.054       .  S
Cu81         N91   2.102       .  S
Cu82         N84   2.080       .  S
Cu82         N90   2.082       .  S
N83          N84   1.319       .  A
N83          C87   1.339       .  A
N84          C85   1.350       .  A
C85          C86   1.391       .  A
C85          H88   1.081       .  S
C86          C87   1.383       .  A
C86        C2484   1.483       .  S
C87          H89   1.081       .  S
N90          N91   1.325       .  A
N90          C94   1.344       .  A
N91          C92   1.349       .  A
C92          C93   1.390       .  A
C92          H95   1.081       .  S
C93          C94   1.385       .  A
C93        C2437   1.491       .  S
C94          H96   1.081       .  S
N97          N98   1.320       .  A
N97         C101   1.350       .  A
N97        Cu105   2.091       .  S
N98          C99   1.341       .  A
N98        Cu104   2.055       .  S
C99         C100   1.382       .  A
C99         H102   1.081       .  S
C100        C101   1.392       .  A
C100       C2417   1.485       .  S
C101        H103   1.080       .  S
Cu104       N107   2.055       .  S
Cu105       N115   2.092       .  S
Cu106       N108   2.075       .  S
Cu106       N114   2.077       .  S
N107        N108   1.319       .  A
N107        C111   1.340       .  A
N108        C109   1.348       .  A
C109        C110   1.389       .  A
C109        H112   1.081       .  S
C110        C111   1.382       .  A
C110       C2397   1.480       .  S
C111        H113   1.081       .  S
N114        N115   1.324       .  A
N114        C118   1.343       .  A
N115        C116   1.349       .  A
C116        C117   1.388       .  A
C116        H119   1.080       .  S
C117        C118   1.384       .  A
C117       C2464   1.484       .  S
C118        H120   1.080       .  S
N121        N122   1.321       .  A
N121        C125   1.351       .  A
N121       Cu129   2.090       .  S
N122        C123   1.341       .  A
N122       Cu128   2.064       .  S
C123        C124   1.382       .  A
C123        H126   1.080       .  S
C124        C125   1.390       .  A
C124       C2424   1.482       .  S
C125        H127   1.080       .  S
Cu128       N131   2.065       .  S
Cu129       N139   2.091       .  S
Cu130       N132   2.083       .  S
Cu130       N138   2.085       .  S
N131        N132   1.320       .  A
N131        C135   1.343       .  A
N132        C133   1.349       .  A
C133        C134   1.390       .  A
C133        H136   1.081       .  S
C134        C135   1.384       .  A
C134       C2377   1.484       .  S
C135        H137   1.081       .  S
N138        N139   1.324       .  A
N138        C142   1.345       .  A
N139        C140   1.349       .  A
C140        C141   1.388       .  A
C140        H143   1.079       .  S
C141        C142   1.386       .  A
C141       C2357   1.487       .  S
C142        H144   1.079       .  S
N145        N146   1.323       .  A
N145        C149   1.351       .  A
N145       Cu153   2.101       .  S
N146        C147   1.345       .  A
N146       Cu152   2.074       .  S
C147        C148   1.384       .  A
C147        H150   1.080       .  S
C148        C149   1.391       .  A
C148       C2337   1.489       .  S
C149        H151   1.080       .  S
Cu152       N155   2.073       .  S
Cu153       N163   2.101       .  S
Cu154       N156   2.064       .  S
Cu154       N162   2.065       .  S
N155        N156   1.320       .  A
N155        C159   1.345       .  A
N156        C157   1.344       .  A
C157        C158   1.384       .  A
C157        H160   1.080       .  S
C158        C159   1.386       .  A
C158       C2404   1.478       .  S
C159        H161   1.080       .  S
N162        N163   1.321       .  A
N162        C166   1.343       .  A
N163        C164   1.349       .  A
C164        C165   1.395       .  A
C164        H167   1.080       .  S
C165        C166   1.386       .  A
C165       C2317   1.495       .  S
C166        H168   1.081       .  S
N169        N170   1.322       .  A
N169        C173   1.353       .  A
N169       Cu177   2.098       .  S
N170        C171   1.341       .  A
N170       Cu176   2.068       .  S
C171        C172   1.382       .  A
C171        H174   1.081       .  S
C172        C173   1.392       .  A
C172       C2344   1.487       .  S
C173        H175   1.081       .  S
Cu176       N179   2.067       .  S
Cu177       N187   2.099       .  S
Cu178       N180   2.082       .  S
Cu178       N186   2.083       .  S
N179        N180   1.320       .  A
N179        C183   1.345       .  A
N180        C181   1.348       .  A
C181        C182   1.389       .  A
C181        H184   1.081       .  S
C182        C183   1.385       .  A
C182       C2384   1.484       .  S
C183        H185   1.081       .  S
N186        N187   1.324       .  A
N186        C190   1.345       .  A
N187        C188   1.350       .  A
C188        C189   1.390       .  A
C188        H191   1.080       .  S
C189        C190   1.385       .  A
C189       C2297   1.489       .  S
C190        H192   1.080       .  S
N193        N194   1.323       .  A
N193        C197   1.353       .  A
N193       Cu201   2.103       .  S
N194        C195   1.343       .  A
N194       Cu200   2.074       .  S
C195        C196   1.384       .  A
C195        H198   1.080       .  S
C196        C197   1.393       .  A
C196       C2277   1.491       .  S
C197        H199   1.080       .  S
Cu200       N203   2.073       .  S
Cu201       N211   2.103       .  S
Cu202       N204   2.080       .  S
Cu202       N210   2.081       .  S
N203        N204   1.321       .  A
N203        C207   1.346       .  A
N204        C205   1.347       .  A
C205        C206   1.387       .  A
C205        H208   1.081       .  S
C206        C207   1.385       .  A
C206       C2264   1.481       .  S
C207        H209   1.082       .  S
N210        N211   1.325       .  A
N210        C214   1.345       .  A
N211        C212   1.351       .  A
C212        C213   1.390       .  A
C212        H215   1.081       .  S
C213        C214   1.384       .  A
C213       C2237   1.488       .  S
C214        H216   1.082       .  S
N217        N218   1.322       .  A
N217        C221   1.354       .  A
N217       Cu225   2.105       .  S
N218        C219   1.342       .  A
N218       Cu224   2.068       .  S
C219        C220   1.381       .  A
C219        H222   1.081       .  S
C220        C221   1.393       .  A
C220       C2284   1.486       .  S
C221        H223   1.080       .  S
Cu224       N227   2.069       .  S
Cu225       N235   2.106       .  S
Cu226       N228   2.086       .  S
Cu226       N234   2.088       .  S
N227        N228   1.319       .  A
N227        C231   1.343       .  A
N228        C229   1.349       .  A
C229        C230   1.393       .  A
C229        H232   1.081       .  S
C230        C231   1.387       .  A
C230       C2217   1.492       .  S
C231        H233   1.081       .  S
N234        N235   1.324       .  A
N234        C238   1.346       .  A
N235        C236   1.350       .  A
C236        C237   1.394       .  A
C236        H239   1.079       .  S
C237        C238   1.388       .  A
C237       C2504   1.498       .  S
C238        H240   1.079       .  S
N241        N242   1.320       .  A
N241        C245   1.348       .  A
N241       Cu249   2.079       .  S
N242        C243   1.341       .  A
N242       Cu248   2.068       .  S
C243        C244   1.387       .  A
C243        H246   1.081       .  S
C244        C245   1.391       .  A
C244       C2204   1.490       .  S
C245        H247   1.081       .  S
Cu248       N251   2.068       .  S
Cu249       N259   2.080       .  S
Cu250       N252   2.084       .  S
Cu250       N258   2.085       .  S
N251        N252   1.320       .  A
N251        C255   1.342       .  A
N252        C253   1.350       .  A
C253        C254   1.390       .  A
C253        H256   1.081       .  S
C254        C255   1.384       .  A
C254       C2257   1.485       .  S
C255        H257   1.081       .  S
N258        N259   1.324       .  A
N258        C262   1.344       .  A
N259        C260   1.348       .  A
C260        C261   1.385       .  A
C260        H263   1.079       .  S
C261        C262   1.385       .  A
C261       C2184   1.482       .  S
C262        H264   1.080       .  S
N265        N266   1.322       .  A
N265        C269   1.351       .  A
N265       Cu273   2.093       .  S
N266        C267   1.342       .  A
N266       Cu272   2.068       .  S
C267        C268   1.381       .  A
C267        H270   1.082       .  S
C268        C269   1.389       .  A
C268       C2197   1.480       .  S
C269        H271   1.081       .  S
Cu272       N275   2.068       .  S
Cu273       N283   2.094       .  S
Cu274       N276   2.090       .  S
Cu274       N282   2.091       .  S
N275        N276   1.320       .  A
N275        C279   1.343       .  A
N276        C277   1.350       .  A
C277        C278   1.392       .  A
C277        H280   1.081       .  S
C278        C279   1.386       .  A
C278       C2224   1.490       .  S
C279        H281   1.081       .  S
N282        N283   1.325       .  A
N282        C286   1.347       .  A
N283        C284   1.349       .  A
C284        C285   1.388       .  A
C284        H287   1.081       .  S
C285        C286   1.387       .  A
C285       C2164   1.491       .  S
C286        H288   1.081       .  S
N289        N290   1.322       .  A
N289        C293   1.352       .  A
N289       Cu297   2.092       .  S
N290        C291   1.340       .  A
N290       Cu296   2.061       .  S
C291        C292   1.380       .  A
C291        H294   1.082       .  S
C292        C293   1.389       .  A
C292       C2117   1.478       .  S
C293        H295   1.081       .  S
Cu296       N299   2.061       .  S
Cu297       N307   2.094       .  S
Cu298       N300   2.075       .  S
Cu298       N306   2.077       .  S
N299        N300   1.319       .  A
N299        C303   1.341       .  A
N300        C301   1.347       .  A
C301        C302   1.390       .  A
C301        H304   1.081       .  S
C302        C303   1.385       .  A
C302       C2144   1.484       .  S
C303        H305   1.081       .  S
N306        N307   1.323       .  A
N306        C310   1.345       .  A
N307        C308   1.348       .  A
C308        C309   1.390       .  A
C308        H311   1.079       .  S
C309        C310   1.386       .  A
C309       C2097   1.490       .  S
C310        H312   1.076       .  S
N313        N314   1.321       .  A
N313        C317   1.353       .  A
N313       Cu321   2.097       .  S
N314        C315   1.338       .  A
N314       Cu320   2.047       .  S
C315        C316   1.378       .  A
C315        H318   1.080       .  S
C316        C317   1.392       .  A
C316       C2084   1.480       .  S
C317        H319   1.080       .  S
Cu320       N323   2.046       .  S
Cu321       N331   2.099       .  S
Cu322       N324   2.076       .  S
Cu322       N330   2.078       .  S
N323        N324   1.318       .  A
N323        C327   1.340       .  A
N324        C325   1.347       .  A
C325        C326   1.391       .  A
C325        H328   1.081       .  S
C326        C327   1.383       .  A
C326       C2137   1.482       .  S
C327        H329   1.080       .  S
N330        N331   1.325       .  A
N330        C334   1.343       .  A
N331        C332   1.349       .  A
C332        C333   1.389       .  A
C332        H335   1.080       .  S
C333        C334   1.384       .  A
C333       C2057   1.487       .  S
C334        H336   1.081       .  S
N337        N338   1.323       .  A
N337        C341   1.352       .  A
N337       Cu345   2.100       .  S
N338        C339   1.342       .  A
N338       Cu344   2.067       .  S
C339        C340   1.381       .  A
C339        H342   1.081       .  S
C340        C341   1.390       .  A
C340       C2077   1.482       .  S
C341        H343   1.081       .  S
Cu344       N347   2.067       .  S
Cu345       N355   2.101       .  S
Cu346       N348   2.079       .  S
Cu346       N354   2.080       .  S
N347        N348   1.320       .  A
N347        C351   1.343       .  A
N348        C349   1.348       .  A
C349        C350   1.388       .  A
C349        H352   1.081       .  S
C350        C351   1.385       .  A
C350       C2037   1.484       .  S
C351        H353   1.081       .  S
N354        N355   1.324       .  A
N354        C358   1.344       .  A
N355        C356   1.350       .  A
C356        C357   1.391       .  A
C356        H359   1.081       .  S
C357        C358   1.384       .  A
C357       C2017   1.489       .  S
C358        H360   1.081       .  S
N361        N362   1.323       .  A
N361        C365   1.353       .  A
N361       Cu369   2.101       .  S
N362        C363   1.340       .  A
N362       Cu368   2.074       .  S
C363        C364   1.385       .  A
C363        H366   1.081       .  S
C364        C365   1.394       .  A
C364       C2124   1.494       .  S
C365        H367   1.081       .  S
Cu368       N371   2.075       .  S
Cu369       N379   2.101       .  S
Cu370       N372   2.069       .  S
Cu370       N378   2.070       .  S
N371        N372   1.316       .  A
N371        C375   1.344       .  A
N372        C373   1.344       .  A
C373        C374   1.395       .  A
C373        H376   1.077       .  S
C374        C375   1.397       .  A
C374       C2044   1.505       .  S
C375        H377   1.078       .  S
N378        N379   1.324       .  A
N378        C382   1.343       .  A
N379        C380   1.351       .  A
C380        C381   1.391       .  A
C380        H383   1.081       .  S
C381        C382   1.382       .  A
C381       C2244   1.487       .  S
C382        H384   1.081       .  S
N385        N386   1.322       .  A
N385        C389   1.350       .  A
N385       Cu393   2.085       .  S
N386        C387   1.340       .  A
N386       Cu392   2.065       .  S
C387        C388   1.381       .  A
C387        H390   1.082       .  S
C388        C389   1.388       .  A
C388       C1984   1.479       .  S
C389        H391   1.081       .  S
Cu392       N395   2.065       .  S
Cu393       N403   2.086       .  S
Cu394       N396   2.079       .  S
Cu394       N402   2.080       .  S
N395        N396   1.320       .  A
N395        C399   1.344       .  A
N396        C397   1.347       .  A
C397        C398   1.388       .  A
C397        H400   1.081       .  S
C398        C399   1.385       .  A
C398       C1997   1.483       .  S
C399        H401   1.081       .  S
N402        N403   1.324       .  A
N402        C406   1.344       .  A
N403        C404   1.348       .  A
C404        C405   1.386       .  A
C404        H407   1.081       .  S
C405        C406   1.384       .  A
C405       C1957   1.483       .  S
C406        H408   1.081       .  S
N409        N410   1.321       .  A
N409        C413   1.351       .  A
N409       Cu417   2.089       .  S
N410        C411   1.341       .  A
N410       Cu416   2.063       .  S
C411        C412   1.381       .  A
C411        H414   1.081       .  S
C412        C413   1.390       .  A
C412       C1937   1.482       .  S
C413        H415   1.080       .  S
Cu416       N419   2.063       .  S
Cu417       N427   2.090       .  S
Cu418       N420   2.081       .  S
Cu418       N426   2.083       .  S
N419        N420   1.319       .  A
N419        C423   1.341       .  A
N420        C421   1.350       .  A
C421        C422   1.390       .  A
C421        H424   1.081       .  S
C422        C423   1.384       .  A
C422       C2004   1.485       .  S
C423        H425   1.081       .  S
N426        N427   1.325       .  A
N426        C430   1.344       .  A
N427        C428   1.349       .  A
C428        C429   1.386       .  A
C428        H431   1.081       .  S
C429        C430   1.384       .  A
C429       C1924   1.483       .  S
C430        H432   1.081       .  S
N433        N434   1.321       .  A
N433        C437   1.352       .  A
N433       Cu441   2.099       .  S
N434        C435   1.340       .  A
N434       Cu440   2.060       .  S
C435        C436   1.383       .  A
C435        H438   1.080       .  S
C436        C437   1.394       .  A
C436       C1944   1.490       .  S
C437        H439   1.080       .  S
Cu440       N443   2.059       .  S
Cu441       N451   2.101       .  S
Cu442       N444   2.077       .  S
Cu442       N450   2.079       .  S
N443        N444   1.320       .  A
N443        C447   1.342       .  A
N444        C445   1.348       .  A
C445        C446   1.387       .  A
C445        H448   1.081       .  S
C446        C447   1.382       .  A
C446       C1904   1.478       .  S
C447        H449   1.080       .  S
N450        N451   1.325       .  A
N450        C454   1.343       .  A
N451        C452   1.351       .  A
C452        C453   1.390       .  A
C452        H455   1.081       .  S
C453        C454   1.384       .  A
C453       C1877   1.488       .  S
C454        H456   1.081       .  S
N457        N458   1.322       .  A
N457        C461   1.349       .  A
N457       Cu465   2.081       .  S
N458        C459   1.340       .  A
N458       Cu464   2.061       .  S
C459        C460   1.379       .  A
C459        H462   1.082       .  S
C460        C461   1.385       .  A
C460       C1977   1.472       .  S
C461        H463   1.081       .  S
Cu464       N467   2.061       .  S
Cu465       N475   2.082       .  S
Cu466       N468   2.070       .  S
Cu466       N474   2.072       .  S
N467        N468   1.319       .  A
N467        C471   1.342       .  A
N468        C469   1.346       .  A
C469        C470   1.388       .  A
C469        H472   1.080       .  S
C470        C471   1.386       .  A
C470       C1897   1.483       .  S
C471        H473   1.081       .  S
N474        N475   1.323       .  A
N474        C478   1.342       .  A
N475        C476   1.348       .  A
C476        C477   1.386       .  A
C476        H479   1.081       .  S
C477        C478   1.383       .  A
C477       C2177   1.480       .  S
C478        H480   1.081       .  S
N481        N482   1.321       .  A
N481        C485   1.349       .  A
N481       Cu489   2.083       .  S
N482        C483   1.341       .  A
N482       Cu488   2.062       .  S
C483        C484   1.382       .  A
C483        H486   1.080       .  S
C484        C485   1.389       .  A
C484       C1857   1.481       .  S
C485        H487   1.080       .  S
Cu488       N491   2.062       .  S
Cu489       N499   2.084       .  S
Cu490       N492   2.084       .  S
Cu490       N498   2.086       .  S
N491        N492   1.320       .  A
N491        C495   1.342       .  A
N492        C493   1.348       .  A
C493        C494   1.391       .  A
C493        H496   1.081       .  S
C494        C495   1.385       .  A
C494       C1837   1.487       .  S
C495        H497   1.081       .  S
N498        N499   1.323       .  A
N498        C502   1.345       .  A
N499        C500   1.347       .  A
C500        C501   1.389       .  A
C500        H503   1.080       .  S
C501        C502   1.389       .  A
C501       C2444   1.492       .  S
C502        H504   1.080       .  S
N505        N506   1.321       .  A
N505        C509   1.347       .  A
N505       Cu513   2.076       .  S
N506        C507   1.343       .  A
N506       Cu512   2.070       .  S
C507        C508   1.384       .  A
C507        H510   1.081       .  S
C508        C509   1.386       .  A
C508       C1864   1.479       .  S
C509        H511   1.081       .  S
Cu512       N515   2.071       .  S
Cu513       N523   2.077       .  S
Cu514       N516   2.083       .  S
Cu514       N522   2.084       .  S
N515        N516   1.321       .  A
N515        C519   1.343       .  A
N516        C517   1.349       .  A
C517        C518   1.388       .  A
C517        H520   1.081       .  S
C518        C519   1.384       .  A
C518       C1817   1.483       .  S
C519        H521   1.081       .  S
N522        N523   1.323       .  A
N522        C526   1.345       .  A
N523        C524   1.346       .  A
C524        C525   1.386       .  A
C524        H527   1.081       .  S
C525        C526   1.387       .  A
C525       C2064   1.485       .  S
C526        H528   1.081       .  S
N529        N530   1.321       .  A
N529        C533   1.352       .  A
N529       Cu537   2.093       .  S
N530        C531   1.340       .  A
N530       Cu536   2.059       .  S
C531        C532   1.380       .  A
C531        H534   1.081       .  S
C532        C533   1.390       .  A
C532       C1797   1.480       .  S
C533        H535   1.080       .  S
Cu536       N539   2.059       .  S
Cu537       N547   2.095       .  S
Cu538       N540   2.089       .  S
Cu538       N546   2.091       .  S
N539        N540   1.319       .  A
N539        C543   1.342       .  A
N540        C541   1.350       .  A
C541        C542   1.392       .  A
C541        H544   1.081       .  S
C542        C543   1.384       .  A
C542       C1844   1.487       .  S
C543        H545   1.081       .  S
N546        N547   1.325       .  A
N546        C550   1.345       .  A
N547        C548   1.349       .  A
C548        C549   1.390       .  A
C548        H551   1.081       .  S
C549        C550   1.387       .  A
C549       C1777   1.493       .  S
C550        H552   1.081       .  S
N553        N554   1.322       .  A
N553        C557   1.349       .  A
N553       Cu561   2.085       .  S
N554        C555   1.343       .  A
N554       Cu560   2.073       .  S
C555        C556   1.383       .  A
C555        H558   1.081       .  S
C556        C557   1.387       .  A
C556       C1804   1.482       .  S
C557        H559   1.081       .  S
Cu560       N563   2.072       .  S
Cu561       N571   2.086       .  S
Cu562       N564   2.076       .  S
Cu562       N570   2.076       .  S
N563        N564   1.320       .  A
N563        C567   1.345       .  A
N564        C565   1.347       .  A
C565        C566   1.388       .  A
C565        H568   1.081       .  S
C566        C567   1.386       .  A
C566       C1824   1.485       .  S
C567        H569   1.080       .  S
N570        N571   1.323       .  A
N570        C574   1.344       .  A
N571        C572   1.348       .  A
C572        C573   1.388       .  A
C572        H575   1.081       .  S
C573        C574   1.384       .  A
C573       C1917   1.484       .  S
C574        H576   1.081       .  S
N577        N578   1.323       .  A
N577        C581   1.352       .  A
N577       Cu585   2.098       .  S
N578        C579   1.342       .  A
N578       Cu584   2.067       .  S
C579        C580   1.381       .  A
C579        H582   1.081       .  S
C580        C581   1.390       .  A
C580       C1737   1.482       .  S
C581        H583   1.080       .  S
Cu584       N587   2.067       .  S
Cu585       N595   2.099       .  S
Cu586       N588   2.070       .  S
Cu586       N594   2.071       .  S
N587        N588   1.319       .  A
N587        C591   1.343       .  A
N588        C589   1.346       .  A
C589        C590   1.387       .  A
C589        H592   1.081       .  S
C590        C591   1.385       .  A
C590       C1764   1.481       .  S
C591        H593   1.081       .  S
N594        N595   1.323       .  A
N594        C598   1.344       .  A
N595        C596   1.351       .  A
C596        C597   1.390       .  A
C596        H599   1.076       .  S
C597        C598   1.383       .  A
C597       C1724   1.484       .  S
C598        H600   1.075       .  S
N601        N602   1.322       .  A
N601        C605   1.352       .  A
N601       Cu609   2.101       .  S
N602        C603   1.343       .  A
N602       Cu608   2.070       .  S
C603        C604   1.384       .  A
C603        H606   1.080       .  S
C604        C605   1.392       .  A
C604       C1697   1.489       .  S
C605        H607   1.081       .  S
Cu608       N611   2.070       .  S
Cu609       N619   2.101       .  S
Cu610       N612   2.073       .  S
Cu610       N618   2.075       .  S
N611        N612   1.320       .  A
N611        C615   1.344       .  A
N612        C613   1.346       .  A
C613        C614   1.387       .  A
C613        H616   1.081       .  S
C614        C615   1.386       .  A
C614       C1757   1.483       .  S
C615        H617   1.081       .  S
N618        N619   1.323       .  A
N618        C622   1.344       .  A
N619        C620   1.350       .  A
C620        C621   1.393       .  A
C620        H623   1.080       .  S
C621        C622   1.386       .  A
C621       C2157   1.495       .  S
C622        H624   1.081       .  S
N625        N626   1.323       .  A
N625        C629   1.352       .  A
N625       Cu633   2.097       .  S
N626        C627   1.342       .  A
N626       Cu632   2.070       .  S
C627        C628   1.381       .  A
C627        H630   1.081       .  S
C628        C629   1.390       .  A
C628       C1704   1.483       .  S
C629        H631   1.080       .  S
Cu632       N635   2.070       .  S
Cu633       N643   2.098       .  S
Cu634       N636   2.078       .  S
Cu634       N642   2.080       .  S
N635        N636   1.319       .  A
N635        C639   1.343       .  A
N636        C637   1.348       .  A
C637        C638   1.391       .  A
C637        H640   1.081       .  S
C638        C639   1.388       .  A
C638       C1677   1.490       .  S
C639        H641   1.080       .  S
N642        N643   1.324       .  A
N642        C646   1.344       .  A
N643        C644   1.349       .  A
C644        C645   1.391       .  A
C644        H647   1.081       .  S
C645        C646   1.387       .  A
C645       C2324   1.494       .  S
C646        H648   1.081       .  S
N649        N650   1.323       .  A
N649        C653   1.352       .  A
N649       Cu657   2.097       .  S
N650        C651   1.342       .  A
N650       Cu656   2.075       .  S
C651        C652   1.383       .  A
C651        H654   1.081       .  S
C652        C653   1.390       .  A
C652       C1744   1.487       .  S
C653        H655   1.080       .  S
Cu656       N659   2.075       .  S
Cu657       N667   2.097       .  S
Cu658       N660   2.075       .  S
Cu658       N666   2.075       .  S
N659        N660   1.320       .  A
N659        C663   1.346       .  A
N660        C661   1.346       .  A
C661        C662   1.386       .  A
C661        H664   1.081       .  S
C662        C663   1.386       .  A
C662       C1684   1.482       .  S
C663        H665   1.081       .  S
N666        N667   1.323       .  A
N666        C670   1.344       .  A
N667        C668   1.350       .  A
C668        C669   1.390       .  A
C668        H671   1.081       .  S
C669        C670   1.383       .  A
C669       C1784   1.487       .  S
C670        H672   1.081       .  S
N673        N674   1.323       .  A
N673        C677   1.348       .  A
N673       Cu681   2.089       .  S
N674        C675   1.345       .  A
N674       Cu680   2.079       .  S
C675        C676   1.386       .  A
C675        H678   1.081       .  S
C676        C677   1.389       .  A
C676       C1637   1.487       .  S
C677        H679   1.080       .  S
Cu680       N683   2.078       .  S
Cu681       N691   2.089       .  S
Cu682       N684   2.079       .  S
Cu682       N690   2.080       .  S
N683        N684   1.322       .  A
N683        C687   1.346       .  A
N684        C685   1.347       .  A
C685        C686   1.384       .  A
C685        H688   1.081       .  S
C686        C687   1.383       .  A
C686       C1657   1.477       .  S
C687        H689   1.082       .  S
N690        N691   1.323       .  A
N690        C694   1.345       .  A
N691        C692   1.349       .  A
C692        C693   1.388       .  A
C692        H695   1.081       .  S
C693        C694   1.386       .  A
C693       C1617   1.487       .  S
C694        H696   1.081       .  S
N697        N698   1.321       .  A
N697        C701   1.352       .  A
N697       Cu705   2.099       .  S
N698        C699   1.341       .  A
N698       Cu704   2.060       .  S
C699        C700   1.382       .  A
C699        H702   1.081       .  S
C700        C701   1.393       .  A
C700       C1597   1.487       .  S
C701        H703   1.081       .  S
Cu704       N707   2.060       .  S
Cu705       N715   2.101       .  S
Cu706       N708   2.079       .  S
Cu706       N714   2.081       .  S
N707        N708   1.318       .  A
N707        C711   1.342       .  A
N708        C709   1.348       .  A
C709        C710   1.392       .  A
C709        H712   1.079       .  S
C710        C711   1.386       .  A
C710       C1664   1.489       .  S
C711        H713   1.079       .  S
N714        N715   1.325       .  A
N714        C718   1.345       .  A
N715        C716   1.351       .  A
C716        C717   1.389       .  A
C716        H719   1.077       .  S
C717        C718   1.384       .  A
C717       C1584   1.485       .  S
C718        H720   1.073       .  S
N721        N722   1.322       .  A
N721        C725   1.352       .  A
N721       Cu729   2.101       .  S
N722        C723   1.343       .  A
N722       Cu728   2.066       .  S
C723        C724   1.382       .  A
C723        H726   1.081       .  S
C724        C725   1.392       .  A
C724       C1604   1.486       .  S
C725        H727   1.080       .  S
Cu728       N731   2.066       .  S
Cu729       N739   2.102       .  S
Cu730       N732   2.084       .  S
Cu730       N738   2.085       .  S
N731        N732   1.320       .  A
N731        C735   1.342       .  A
N732        C733   1.349       .  A
C733        C734   1.391       .  A
C733        H736   1.081       .  S
C734        C735   1.386       .  A
C734       C1557   1.489       .  S
C735        H737   1.081       .  S
N738        N739   1.325       .  A
N738        C742   1.345       .  A
N739        C740   1.351       .  A
C740        C741   1.390       .  A
C740        H743   1.082       .  S
C741        C742   1.385       .  A
C741       C1537   1.489       .  S
C742        H744   1.079       .  S
N745        N746   1.321       .  A
N745        C749   1.352       .  A
N745       Cu753   2.095       .  S
N746        C747   1.340       .  A
N746       Cu752   2.066       .  S
C747        C748   1.383       .  A
C747        H750   1.080       .  S
C748        C749   1.393       .  A
C748       C1644   1.488       .  S
C749        H751   1.081       .  S
Cu752       N755   2.065       .  S
Cu753       N763   2.096       .  S
Cu754       N756   2.075       .  S
Cu754       N762   2.077       .  S
N755        N756   1.319       .  A
N755        C759   1.343       .  A
N756        C757   1.347       .  A
C757        C758   1.389       .  A
C757        H760   1.081       .  S
C758        C759   1.386       .  A
C758       C1564   1.485       .  S
C759        H761   1.081       .  S
N762        N763   1.324       .  A
N762        C766   1.343       .  A
N763        C764   1.349       .  A
C764        C765   1.389       .  A
C764        H767   1.081       .  S
C765        C766   1.384       .  A
C765       C2364   1.487       .  S
C766        H768   1.081       .  S
N769        N770   1.322       .  A
N769        C773   1.353       .  A
N769       Cu777   2.100       .  S
N770        C771   1.341       .  A
N770       Cu776   2.061       .  S
C771        C772   1.379       .  A
C771        H774   1.081       .  S
C772        C773   1.391       .  A
C772       C1524   1.480       .  S
C773        H775   1.081       .  S
Cu776       N779   2.062       .  S
Cu777       N787   2.102       .  S
Cu778       N780   2.085       .  S
Cu778       N786   2.086       .  S
N779        N780   1.320       .  A
N779        C783   1.343       .  A
N780        C781   1.349       .  A
C781        C782   1.390       .  A
C781        H784   1.081       .  S
C782        C783   1.384       .  A
C782       C1497   1.485       .  S
C783        H785   1.081       .  S
N786        N787   1.325       .  A
N786        C790   1.346       .  A
N787        C788   1.351       .  A
C788        C789   1.389       .  A
C788        H791   1.081       .  S
C789        C790   1.384       .  A
C789       C1544   1.488       .  S
C790        H792   1.081       .  S
N793        N794   1.320       .  A
N793        C797   1.350       .  A
N793       Cu801   2.089       .  S
N794        C795   1.341       .  A
N794       Cu800   2.058       .  S
C795        C796   1.382       .  A
C795        H798   1.081       .  S
C796        C797   1.391       .  A
C796       C1517   1.483       .  S
C797        H799   1.080       .  S
Cu800       N803   2.057       .  S
Cu801       N811   2.090       .  S
Cu802       N804   2.080       .  S
Cu802       N810   2.083       .  S
N803        N804   1.320       .  A
N803        C807   1.341       .  A
N804        C805   1.349       .  A
C805        C806   1.388       .  A
C805        H808   1.081       .  S
C806        C807   1.381       .  A
C806       C1484   1.477       .  S
C807        H809   1.081       .  S
N810        N811   1.324       .  A
N810        C814   1.345       .  A
N811        C812   1.347       .  A
C812        C813   1.389       .  A
C812        H815   1.080       .  S
C813        C814   1.387       .  A
C813       C2104   1.490       .  S
C814        H816   1.081       .  S
N817        N818   1.320       .  A
N817        C821   1.350       .  A
N817       Cu825   2.088       .  S
N818        C819   1.342       .  A
N818       Cu824   2.062       .  S
C819        C820   1.383       .  A
C819        H822   1.081       .  S
C820        C821   1.391       .  A
C820       C1457   1.485       .  S
C821        H823   1.080       .  S
Cu824       N827   2.063       .  S
Cu825       N835   2.090       .  S
Cu826       N828   2.095       .  S
Cu826       N834   2.097       .  S
N827        N828   1.321       .  A
N827        C831   1.342       .  A
N828        C829   1.351       .  A
C829        C830   1.391       .  A
C829        H832   1.081       .  S
C830        C831   1.382       .  A
C830       C1504   1.484       .  S
C831        H833   1.081       .  S
N834        N835   1.324       .  A
N834        C838   1.348       .  A
N835        C836   1.347       .  A
C836        C837   1.389       .  A
C836        H839   1.080       .  S
C837        C838   1.391       .  A
C837       C1444   1.496       .  S
C838        H840   1.080       .  S
N841        N842   1.322       .  A
N841        C845   1.350       .  A
N841       Cu849   2.090       .  S
N842        C843   1.341       .  A
N842       Cu848   2.062       .  S
C843        C844   1.381       .  A
C843        H846   1.081       .  S
C844        C845   1.389       .  A
C844       C1464   1.481       .  S
C845        H847   1.080       .  S
Cu848       N851   2.062       .  S
Cu849       N859   2.091       .  S
Cu850       N852   2.075       .  S
Cu850       N858   2.077       .  S
N851        N852   1.319       .  A
N851        C855   1.342       .  A
N852        C853   1.347       .  A
C853        C854   1.389       .  A
C853        H856   1.081       .  S
C854        C855   1.385       .  A
C854       C1477   1.485       .  S
C855        H857   1.081       .  S
N858        N859   1.324       .  A
N858        C862   1.345       .  A
N859        C860   1.348       .  A
C860        C861   1.387       .  A
C860        H863   1.081       .  S
C861        C862   1.383       .  A
C861       C1964   1.483       .  S
C862        H864   1.081       .  S
N865        N866   1.322       .  A
N865        C869   1.351       .  A
N865       Cu873   2.093       .  S
N866        C867   1.344       .  A
N866       Cu872   2.081       .  S
C867        C868   1.385       .  A
C867        H870   1.081       .  S
C868        C869   1.390       .  A
C868       C1417   1.488       .  S
C869        H871   1.081       .  S
Cu872       N875   2.082       .  S
Cu873       N883   2.094       .  S
Cu874       N876   2.092       .  S
Cu874       N882   2.093       .  S
N875        N876   1.322       .  A
N875        C879   1.347       .  A
N876        C877   1.349       .  A
C877        C878   1.390       .  A
C877        H880   1.081       .  S
C878        C879   1.387       .  A
C878       C1397   1.492       .  S
C879        H881   1.081       .  S
N882        N883   1.324       .  A
N882        C886   1.348       .  A
N883        C884   1.348       .  A
C884        C885   1.388       .  A
C884        H887   1.081       .  S
C885        C886   1.388       .  A
C885       C2024   1.491       .  S
C886        H888   1.081       .  S
N889        N890   1.322       .  A
N889        C893   1.352       .  A
N889       Cu897   2.100       .  S
N890        C891   1.344       .  A
N890       Cu896   2.072       .  S
C891        C892   1.383       .  A
C891        H894   1.081       .  S
C892        C893   1.391       .  A
C892       C1424   1.487       .  S
C893        H895   1.081       .  S
Cu896       N899   2.071       .  S
Cu897       N907   2.101       .  S
Cu898       N900   2.086       .  S
Cu898       N906   2.088       .  S
N899        N900   1.320       .  A
N899        C903   1.342       .  A
N900        C901   1.350       .  A
C901        C902   1.393       .  A
C901        H904   1.081       .  S
C902        C903   1.387       .  A
C902       C1377   1.492       .  S
C903        H905   1.081       .  S
N906        N907   1.325       .  A
N906        C910   1.345       .  A
N907        C908   1.350       .  A
C908        C909   1.390       .  A
C908        H911   1.081       .  S
C909        C910   1.387       .  A
C909       C1624   1.492       .  S
C910        H912   1.081       .  S
N913        N914   1.322       .  A
N913        C917   1.352       .  A
N913       Cu921   2.099       .  S
N914        C915   1.343       .  A
N914       Cu920   2.074       .  S
C915        C916   1.383       .  A
C915        H918   1.082       .  S
C916        C917   1.392       .  A
C916       C1357   1.488       .  S
C917        H919   1.081       .  S
Cu920       N923   2.074       .  S
Cu921       N931   2.099       .  S
Cu922       N924   2.093       .  S
Cu922       N930   2.094       .  S
N923        N924   1.321       .  A
N923        C927   1.345       .  A
N924        C925   1.350       .  A
C925        C926   1.391       .  A
C925        H928   1.081       .  S
C926        C927   1.385       .  A
C926       C1404   1.489       .  S
C927        H929   1.081       .  S
N930        N931   1.324       .  A
N930        C934   1.347       .  A
N931        C932   1.349       .  A
C932        C933   1.391       .  A
C932        H935   1.080       .  S
C933        C934   1.389       .  A
C933       C1884   1.496       .  S
C934        H936   1.081       .  S
N937        N938   1.323       .  A
N937        C941   1.354       .  A
N937       Cu945   2.107       .  S
N938        C939   1.341       .  A
N938       Cu944   2.067       .  S
C939        C940   1.380       .  A
C939        H942   1.082       .  S
C940        C941   1.392       .  A
C940       C1364   1.486       .  S
C941        H943   1.081       .  S
Cu944       N947   2.067       .  S
Cu945       N955   2.108       .  S
Cu946       N948   2.072       .  S
Cu946       N954   2.073       .  S
N947        N948   1.318       .  A
N947        C951   1.343       .  A
N948        C949   1.347       .  A
C949        C950   1.390       .  A
C949        H952   1.081       .  S
C950        C951   1.387       .  A
C950       C1384   1.488       .  S
C951        H953   1.081       .  S
N954        N955   1.324       .  A
N954        C958   1.342       .  A
N955        C956   1.351       .  A
C956        C957   1.395       .  A
C956        H959   1.080       .  S
C957        C958   1.386       .  A
C957       C1337   1.496       .  S
C958        H960   1.080       .  S
N961        N962   1.322       .  A
N961        C965   1.351       .  A
N961       Cu969   2.090       .  S
N962        C963   1.342       .  A
N962       Cu968   2.069       .  S
C963        C964   1.382       .  A
C963        H966   1.081       .  S
C964        C965   1.390       .  A
C964       C1304   1.483       .  S
C965        H967   1.080       .  S
Cu968       N971   2.068       .  S
Cu969       N979   2.091       .  S
Cu970       N972   2.077       .  S
Cu970       N978   2.078       .  S
N971        N972   1.320       .  A
N971        C975   1.343       .  A
N972        C973   1.348       .  A
C973        C974   1.389       .  A
C973        H976   1.082       .  S
C974        C975   1.385       .  A
C974       C1324   1.485       .  S
C975        H977   1.081       .  S
N978        N979   1.324       .  A
N978        C982   1.344       .  A
N979        C980   1.349       .  A
C980        C981   1.388       .  A
C980        H983   1.081       .  S
C981        C982   1.383       .  A
C981       C1344   1.484       .  S
C982        H984   1.081       .  S
N985        N986   1.322       .  A
N985        C989   1.350       .  A
N985       Cu993   2.095       .  S
N986        C987   1.342       .  A
N986       Cu992   2.064       .  S
C987        C988   1.381       .  A
C987        H990   1.081       .  S
C988        C989   1.390       .  A
C988       C1284   1.481       .  S
C989        H991   1.081       .  S
Cu992       N995   2.065       .  S
Cu993      N1003   2.095       .  S
Cu994       N996   2.081       .  S
Cu994      N1002   2.082       .  S
N995        N996   1.320       .  A
N995        C999   1.343       .  A
N996        C997   1.348       .  A
C997        C998   1.390       .  A
C997       H1000   1.081       .  S
C998        C999   1.385       .  A
C998       C1317   1.485       .  S
C999       H1001   1.082       .  S
N1002      N1003   1.323       .  A
N1002      C1006   1.343       .  A
N1003      C1004   1.350       .  A
C1004      C1005   1.392       .  A
C1004      H1007   1.080       .  S
C1005      C1006   1.388       .  A
C1005      C1264   1.495       .  S
C1006      H1008   1.080       .  S
N1009      N1010   1.321       .  A
N1009      C1013   1.353       .  A
N1009     Cu1017   2.101       .  S
N1010      C1011   1.340       .  A
N1010     Cu1016   2.057       .  S
C1011      C1012   1.380       .  A
C1011      H1014   1.081       .  S
C1012      C1013   1.393       .  A
C1012      C1277   1.485       .  S
C1013      H1015   1.081       .  S
Cu1016     N1019   2.057       .  S
Cu1017     N1027   2.103       .  S
Cu1018     N1020   2.077       .  S
Cu1018     N1026   2.079       .  S
N1019      N1020   1.318       .  A
N1019      C1023   1.341       .  A
N1020      C1021   1.348       .  A
C1021      C1022   1.390       .  A
C1021      H1024   1.081       .  S
C1022      C1023   1.385       .  A
C1022      C1237   1.485       .  S
C1023      H1025   1.081       .  S
N1026      N1027   1.325       .  A
N1026      C1030   1.344       .  A
N1027      C1028   1.350       .  A
C1028      C1029   1.389       .  A
C1028      H1031   1.081       .  S
C1029      C1030   1.384       .  A
C1029      C1437   1.487       .  S
C1030      H1032   1.081       .  S
N1033      N1034   1.322       .  A
N1033      C1037   1.351       .  A
N1033     Cu1041   2.096       .  S
N1034      C1035   1.341       .  A
N1034     Cu1040   2.058       .  S
C1035      C1036   1.380       .  A
C1035      H1038   1.081       .  S
C1036      C1037   1.391       .  A
C1036      C1297   1.481       .  S
C1037      H1039   1.081       .  S
Cu1040     N1043   2.057       .  S
Cu1041     N1051   2.097       .  S
Cu1042     N1044   2.074       .  S
Cu1042     N1050   2.076       .  S
N1043      N1044   1.318       .  A
N1043      C1047   1.341       .  A
N1044      C1045   1.347       .  A
C1045      C1046   1.390       .  A
C1045      H1048   1.081       .  S
C1046      C1047   1.385       .  A
C1046      C1244   1.485       .  S
C1047      H1049   1.081       .  S
N1050      N1051   1.324       .  A
N1050      C1054   1.343       .  A
N1051      C1052   1.349       .  A
C1052      C1053   1.389       .  A
C1052      H1055   1.081       .  S
C1053      C1054   1.384       .  A
C1053      C2304   1.488       .  S
C1054      H1056   1.081       .  S
N1057      N1058   1.321       .  A
N1057      C1061   1.353       .  A
N1057     Cu1065   2.102       .  S
N1058      C1059   1.341       .  A
N1058     Cu1064   2.062       .  S
C1059      C1060   1.382       .  A
C1059      H1062   1.081       .  S
C1060      C1061   1.394       .  A
C1060      C1224   1.489       .  S
C1061      H1063   1.080       .  S
Cu1064     N1067   2.062       .  S
Cu1065     N1075   2.103       .  S
Cu1066     N1068   2.078       .  S
Cu1066     N1074   2.080       .  S
N1067      N1068   1.319       .  A
N1067      C1071   1.343       .  A
N1068      C1069   1.347       .  A
C1069      C1070   1.391       .  A
C1069      H1072   1.081       .  S
C1070      C1071   1.386       .  A
C1070      C1197   1.487       .  S
C1071      H1073   1.080       .  S
N1074      N1075   1.325       .  A
N1074      C1078   1.344       .  A
N1075      C1076   1.350       .  A
C1076      C1077   1.388       .  A
C1076      H1079   1.081       .  S
C1077      C1078   1.382       .  A
C1077      C1577   1.484       .  S
C1078      H1080   1.081       .  S
N1081      N1082   1.321       .  A
N1081      C1085   1.350       .  A
N1081     Cu1089   2.088       .  S
N1082      C1083   1.345       .  A
N1082     Cu1088   2.074       .  S
C1083      C1084   1.384       .  A
C1083      H1086   1.080       .  S
C1084      C1085   1.388       .  A
C1084      C1217   1.482       .  S
C1085      H1087   1.080       .  S
Cu1088     N1091   2.074       .  S
Cu1089     N1099   2.088       .  S
Cu1090     N1092   2.083       .  S
Cu1090     N1098   2.085       .  S
N1091      N1092   1.321       .  A
N1091      C1095   1.342       .  A
N1092      C1093   1.350       .  A
C1093      C1094   1.390       .  A
C1093      H1096   1.081       .  S
C1094      C1095   1.385       .  A
C1094      C1177   1.487       .  S
C1095      H1097   1.081       .  S
N1098      N1099   1.324       .  A
N1098      C1102   1.346       .  A
N1099      C1100   1.347       .  A
C1100      C1101   1.387       .  A
C1100      H1103   1.080       .  S
C1101      C1102   1.387       .  A
C1101      C2544   1.486       .  S
C1102      H1104   1.081       .  S
N1105      N1106   1.322       .  A
N1105      C1109   1.349       .  A
N1105     Cu1113   2.083       .  S
N1106      C1107   1.343       .  A
N1106     Cu1112   2.069       .  S
C1107      C1108   1.382       .  A
C1107      H1110   1.081       .  S
C1108      C1109   1.386       .  A
C1108      C1164   1.477       .  S
C1109      H1111   1.081       .  S
Cu1112     N1115   2.068       .  S
Cu1113     N1123   2.084       .  S
Cu1114     N1116   2.081       .  S
Cu1114     N1122   2.082       .  S
N1115      N1116   1.320       .  A
N1115      C1119   1.343       .  A
N1116      C1117   1.348       .  A
C1117      C1118   1.390       .  A
C1117      H1120   1.081       .  S
C1118      C1119   1.386       .  A
C1118      C1204   1.487       .  S
C1119      H1121   1.081       .  S
N1122      N1123   1.323       .  A
N1122      C1126   1.344       .  A
N1123      C1124   1.348       .  A
C1124      C1125   1.389       .  A
C1124      H1127   1.080       .  S
C1125      C1126   1.388       .  A
C1125      C1257   1.491       .  S
C1126      H1128   1.080       .  S
N1129      N1130   1.322       .  A
N1129      C1133   1.352       .  A
N1129     Cu1137   2.091       .  S
N1130      C1131   1.341       .  A
N1130     Cu1136   2.069       .  S
C1131      C1132   1.381       .  A
C1131      H1134   1.081       .  S
C1132      C1133   1.389       .  A
C1132      C1157   1.481       .  S
C1133      H1135   1.080       .  S
Cu1136     N1139   2.070       .  S
Cu1137     N1147   2.093       .  S
Cu1138     N1140   2.074       .  S
Cu1138     N1146   2.076       .  S
N1139      N1140   1.320       .  A
N1139      C1143   1.344       .  A
N1140      C1141   1.347       .  A
C1141      C1142   1.387       .  A
C1141      H1144   1.080       .  S
C1142      C1143   1.386       .  A
C1142      C1184   1.484       .  S
C1143      H1145   1.081       .  S
N1146      N1147   1.323       .  A
N1146      C1150   1.344       .  A
N1147      C1148   1.348       .  A
C1148      C1149   1.392       .  A
C1148      H1151   1.080       .  S
C1149      C1150   1.387       .  A
C1149      C1717   1.494       .  S
C1150      H1152   1.080       .  S
C1153      C1154   1.408       .  A
C1153      C1158   1.405       .  A
C1153      F1171   1.358       .  S
C1154      C1155   1.404       .  A
C1154      C1159   1.483       .  S
C1155      C1156   1.396       .  A
C1155      F1160   1.358       .  S
C1156      C1157   1.406       .  A
C1156      F1172   1.358       .  S
C1157      C1158   1.407       .  A
C1158      F1161   1.357       .  S
C1159      C1162   1.406       .  A
C1159      C1166   1.407       .  A
C1162      C1163   1.398       .  A
C1162      F1167   1.358       .  S
C1163      C1164   1.405       .  A
C1163      F1169   1.358       .  S
C1164      C1165   1.406       .  A
C1165      C1166   1.402       .  A
C1165      F1168   1.358       .  S
C1166      F1170   1.358       .  S
C1173      C1174   1.403       .  A
C1173      C1178   1.395       .  A
C1173      F1191   1.358       .  S
C1174      C1175   1.407       .  A
C1174      C1179   1.484       .  S
C1175      C1176   1.405       .  A
C1175      F1180   1.358       .  S
C1176      C1177   1.410       .  A
C1176      F1192   1.357       .  S
C1177      C1178   1.409       .  A
C1178      F1181   1.357       .  S
C1179      C1182   1.405       .  A
C1179      C1186   1.406       .  A
C1182      C1183   1.403       .  A
C1182      F1187   1.358       .  S
C1183      C1184   1.409       .  A
C1183      F1189   1.357       .  S
C1184      C1185   1.407       .  A
C1185      C1186   1.397       .  A
C1185      F1188   1.358       .  S
C1186      F1190   1.358       .  S
C1193      C1194   1.402       .  A
C1193      C1198   1.401       .  A
C1193      F1211   1.358       .  S
C1194      C1195   1.401       .  A
C1194      C1199   1.476       .  S
C1195      C1196   1.399       .  A
C1195      F1200   1.358       .  S
C1196      C1197   1.411       .  A
C1196      F1212   1.357       .  S
C1197      C1198   1.411       .  A
C1198      F1201   1.357       .  S
C1199      C1202   1.402       .  A
C1199      C1206   1.402       .  A
C1202      C1203   1.401       .  A
C1202      F1207   1.358       .  S
C1203      C1204   1.410       .  A
C1203      F1209   1.357       .  S
C1204      C1205   1.411       .  A
C1205      C1206   1.399       .  A
C1205      F1208   1.357       .  S
C1206      F1210   1.358       .  S
C1213      C1214   1.408       .  A
C1213      C1218   1.403       .  A
C1213      F1231   1.358       .  S
C1214      C1215   1.407       .  A
C1214      C1219   1.490       .  S
C1215      C1216   1.401       .  A
C1215      F1220   1.358       .  S
C1216      C1217   1.406       .  A
C1216      F1232   1.358       .  S
C1217      C1218   1.406       .  A
C1218      F1221   1.358       .  S
C1219      C1222   1.405       .  A
C1219      C1226   1.408       .  A
C1222      C1223   1.398       .  A
C1222      F1227   1.358       .  S
C1223      C1224   1.409       .  A
C1223      F1229   1.358       .  S
C1224      C1225   1.409       .  A
C1225      C1226   1.406       .  A
C1225      F1228   1.357       .  S
C1226      F1230   1.358       .  S
C1233      C1234   1.402       .  A
C1233      C1238   1.396       .  A
C1233      F1251   1.358       .  S
C1234      C1235   1.403       .  A
C1234      C1239   1.477       .  S
C1235      C1236   1.401       .  A
C1235      F1240   1.358       .  S
C1236      C1237   1.410       .  A
C1236      F1252   1.357       .  S
C1237      C1238   1.410       .  A
C1238      F1241   1.357       .  S
C1239      C1242   1.402       .  A
C1239      C1246   1.403       .  A
C1242      C1243   1.396       .  A
C1242      F1247   1.358       .  S
C1243      C1244   1.411       .  A
C1243      F1249   1.357       .  S
C1244      C1245   1.410       .  A
C1245      C1246   1.401       .  A
C1245      F1248   1.357       .  S
C1246      F1250   1.358       .  S
C1253      C1254   1.404       .  A
C1253      C1258   1.397       .  A
C1253      F1271   1.358       .  S
C1254      C1255   1.406       .  A
C1254      C1259   1.487       .  S
C1255      C1256   1.405       .  A
C1255      F1260   1.358       .  S
C1256      C1257   1.412       .  A
C1256      F1272   1.357       .  S
C1257      C1258   1.410       .  A
C1258      F1261   1.357       .  S
C1259      C1262   1.406       .  A
C1259      C1266   1.403       .  A
C1262      C1263   1.405       .  A
C1262      F1267   1.358       .  S
C1263      C1264   1.413       .  A
C1263      F1269   1.357       .  S
C1264      C1265   1.412       .  A
C1265      C1266   1.397       .  A
C1265      F1268   1.356       .  S
C1266      F1270   1.358       .  S
C1273      C1274   1.407       .  A
C1273      C1278   1.405       .  A
C1273      F1291   1.357       .  S
C1274      C1275   1.404       .  A
C1274      C1279   1.484       .  S
C1275      C1276   1.397       .  A
C1275      F1280   1.358   1_556  S
C1276      C1277   1.409       .  A
C1276      F1292   1.358       .  S
C1277      C1278   1.408       .  A
C1278      F1281   1.357       .  S
C1279      C1282   1.406   1_556  A
C1279      C1286   1.405       .  A
C1282      C1283   1.402       .  A
C1282      F1287   1.358       .  S
C1283      C1284   1.406       .  A
C1283      F1289   1.357       .  S
C1284      C1285   1.407   1_554  A
C1285      C1286   1.401       .  A
C1285      F1288   1.358       .  S
C1286      F1290   1.358       .  S
C1293      C1294   1.407       .  A
C1293      C1298   1.402       .  A
C1293      F1311   1.358       .  S
C1294      C1295   1.405       .  A
C1294      C1299   1.484       .  S
C1295      C1296   1.399       .  A
C1295      F1300   1.358   1_556  S
C1296      C1297   1.408       .  A
C1296      F1312   1.358       .  S
C1297      C1298   1.406       .  A
C1298      F1301   1.357       .  S
C1299      C1302   1.405       .  A
C1299      C1306   1.407   1_556  A
C1302      C1303   1.398       .  A
C1302      F1307   1.358       .  S
C1303      C1304   1.408   1_556  A
C1303      F1309   1.358       .  S
C1304      C1305   1.408       .  A
C1305      C1306   1.404       .  A
C1305      F1308   1.357       .  S
C1306      F1310   1.358       .  S
C1313      C1314   1.406       .  A
C1313      C1318   1.402       .  A
C1313      F1331   1.358       .  S
C1314      C1315   1.405       .  A
C1314      C1319   1.485       .  S
C1315      C1316   1.398       .  A
C1315      F1320   1.358       .  S
C1316      C1317   1.409       .  A
C1316      F1332   1.358       .  S
C1317      C1318   1.409       .  A
C1318      F1321   1.357       .  S
C1319      C1322   1.406       .  A
C1319      C1326   1.405       .  A
C1322      C1323   1.402       .  A
C1322      F1327   1.358       .  S
C1323      C1324   1.409       .  A
C1323      F1329   1.357       .  S
C1324      C1325   1.408       .  A
C1325      C1326   1.399       .  A
C1325      F1328   1.358       .  S
C1326      F1330   1.358       .  S
C1333      C1334   1.402       .  A
C1333      C1338   1.400       .  A
C1333      F1351   1.358       .  S
C1334      C1335   1.404       .  A
C1334      C1339   1.484       .  S
C1335      C1336   1.403       .  A
C1335      F1340   1.358       .  S
C1336      C1337   1.412       .  A
C1336      F1352   1.356       .  S
C1337      C1338   1.414       .  A
C1338      F1341   1.357       .  S
C1339      C1342   1.405       .  A
C1339      C1346   1.406       .  A
C1342      C1343   1.399       .  A
C1342      F1347   1.358       .  S
C1343      C1344   1.408       .  A
C1343      F1349   1.358       .  S
C1344      C1345   1.408       .  A
C1345      C1346   1.403       .  A
C1345      F1348   1.357       .  S
C1346      F1350   1.358       .  S
C1353      C1354   1.408       .  A
C1353      C1358   1.405       .  A
C1353      F1371   1.358       .  S
C1354      C1355   1.406       .  A
C1354      C1359   1.490       .  S
C1355      C1356   1.402       .  A
C1355      F1360   1.358       .  S
C1356      C1357   1.409       .  A
C1356      F1372   1.358       .  S
C1357      C1358   1.407       .  A
C1358      F1361   1.357       .  S
C1359      C1362   1.405       .  A
C1359      C1366   1.409       .  A
C1362      C1363   1.399       .  A
C1362      F1367   1.358       .  S
C1363      C1364   1.407       .  A
C1363      F1369   1.358       .  S
C1364      C1365   1.408       .  A
C1365      C1366   1.408       .  A
C1365      F1368   1.358       .  S
C1366      F1370   1.358       .  S
C1373      C1374   1.402       .  A
C1373      C1378   1.397       .  A
C1373      F1391   1.358       .  S
C1374      C1375   1.404       .  A
C1374      C1379   1.482       .  S
C1375      C1376   1.405       .  A
C1375      F1380   1.358       .  S
C1376      C1377   1.412       .  A
C1376      F1392   1.357       .  S
C1377      C1378   1.411       .  A
C1378      F1381   1.357       .  S
C1379      C1382   1.403       .  A
C1379      C1386   1.404       .  A
C1382      C1383   1.397       .  A
C1382      F1387   1.358       .  S
C1383      C1384   1.409       .  A
C1383      F1389   1.357       .  S
C1384      C1385   1.411       .  A
C1385      C1386   1.403       .  A
C1385      F1388   1.357       .  S
C1386      F1390   1.358       .  S
C1393      C1394   1.405       .  A
C1393      C1398   1.403       .  A
C1393      F1411   1.358       .  S
C1394      C1395   1.405       .  A
C1394      C1399   1.488       .  S
C1395      C1396   1.404       .  A
C1395      F1400   1.358       .  S
C1396      C1397   1.410       .  A
C1396      F1412   1.357       .  S
C1397      C1398   1.410       .  A
C1398      F1401   1.357       .  S
C1399      C1402   1.405       .  A
C1399      C1406   1.406       .  A
C1402      C1403   1.402       .  A
C1402      F1407   1.358       .  S
C1403      C1404   1.409       .  A
C1403      F1409   1.358       .  S
C1404      C1405   1.409       .  A
C1405      C1406   1.404       .  A
C1405      F1408   1.357       .  S
C1406      F1410   1.358       .  S
C1413      C1414   1.406       .  A
C1413      C1418   1.401       .  A
C1413      F1431   1.358       .  S
C1414      C1415   1.408       .  A
C1414      C1419   1.490       .  S
C1415      C1416   1.406       .  A
C1415      F1420   1.358       .  S
C1416      C1417   1.409       .  A
C1416      F1432   1.357       .  S
C1417      C1418   1.408       .  A
C1418      F1421   1.358       .  S
C1419      C1422   1.408       .  A
C1419      C1426   1.406       .  A
C1422      C1423   1.406       .  A
C1422      F1427   1.358       .  S
C1423      C1424   1.408       .  A
C1423      F1429   1.357       .  S
C1424      C1425   1.407       .  A
C1425      C1426   1.401       .  A
C1425      F1428   1.358       .  S
C1426      F1430   1.358       .  S
C1433      C1434   1.405       .  A
C1433      C1438   1.400       .  A
C1433      F1451   1.358       .  S
C1434      C1435   1.407       .  A
C1434      C1439   1.487       .  S
C1435      C1436   1.404       .  A
C1435      F1440   1.358       .  S
C1436      C1437   1.409       .  A
C1436      F1452   1.357       .  S
C1437      C1438   1.409       .  A
C1438      F1441   1.358       .  S
C1439      C1442   1.404       .  A
C1439      C1446   1.405       .  A
C1442      C1443   1.402       .  A
C1442      F1447   1.358       .  S
C1443      C1444   1.413       .  A
C1443      F1449   1.356       .  S
C1444      C1445   1.411       .  A
C1445      C1446   1.402       .  A
C1445      F1448   1.357       .  S
C1446      F1450   1.358       .  S
C1453      C1454   1.405       .  A
C1453      C1458   1.399       .  A
C1453      F1471   1.358       .  S
C1454      C1455   1.406       .  A
C1454      C1459   1.485       .  S
C1455      C1456   1.402       .  A
C1455      F1460   1.358       .  S
C1456      C1457   1.408       .  A
C1456      F1472   1.357       .  S
C1457      C1458   1.409       .  A
C1458      F1461   1.358       .  S
C1459      C1462   1.407       .  A
C1459      C1466   1.405       .  A
C1462      C1463   1.403       .  A
C1462      F1467   1.358       .  S
C1463      C1464   1.407       .  A
C1463      F1469   1.357       .  S
C1464      C1465   1.407       .  A
C1465      C1466   1.398       .  A
C1465      F1468   1.358       .  S
C1466      F1470   1.358       .  S
C1473      C1474   1.405       .  A
C1473      C1478   1.397       .  A
C1473      F1491   1.358       .  S
C1474      C1475   1.405       .  A
C1474      C1479   1.483       .  S
C1475      C1476   1.401       .  A
C1475      F1480   1.358       .  S
C1476      C1477   1.409       .  A
C1476      F1492   1.357       .  S
C1477      C1478   1.410       .  A
C1478      F1481   1.357       .  S
C1479      C1482   1.407       .  A
C1479      C1486   1.405       .  A
C1482      C1483   1.402       .  A
C1482      F1487   1.358       .  S
C1483      C1484   1.406       .  A
C1483      F1489   1.357       .  S
C1484      C1485   1.406       .  A
C1485      C1486   1.395       .  A
C1485      F1488   1.358       .  S
C1486      F1490   1.358       .  S
C1493      C1494   1.407       .  A
C1493      C1498   1.399       .  A
C1493      F1511   1.358       .  S
C1494      C1495   1.408       .  A
C1494      C1499   1.490       .  S
C1495      C1496   1.403       .  A
C1495      F1500   1.357       .  S
C1496      C1497   1.407       .  A
C1496      F1512   1.357       .  S
C1497      C1498   1.408       .  A
C1498      F1501   1.358       .  S
C1499      C1502   1.408       .  A
C1499      C1506   1.407       .  A
C1502      C1503   1.404       .  A
C1502      F1507   1.357       .  S
C1503      C1504   1.407       .  A
C1503      F1509   1.357       .  S
C1504      C1505   1.408       .  A
C1505      C1506   1.399       .  A
C1505      F1508   1.358       .  S
C1506      F1510   1.358       .  S
C1513      C1514   1.405       .  A
C1513      C1518   1.398       .  A
C1513      F1531   1.358       .  S
C1514      C1515   1.407       .  A
C1514      C1519   1.485       .  S
C1515      C1516   1.403       .  A
C1515      F1520   1.357       .  S
C1516      C1517   1.408       .  A
C1516      F1532   1.357       .  S
C1517      C1518   1.408       .  A
C1518      F1521   1.358       .  S
C1519      C1522   1.408       .  A
C1519      C1526   1.405       .  A
C1522      C1523   1.403       .  A
C1522      F1527   1.358       .  S
C1523      C1524   1.406       .  A
C1523      F1529   1.357       .  S
C1524      C1525   1.406       .  A
C1525      C1526   1.399       .  A
C1525      F1528   1.358       .  S
C1526      F1530   1.358       .  S
C1533      C1534   1.406       .  A
C1533      C1538   1.401       .  A
C1533      F1551   1.358       .  S
C1534      C1535   1.407       .  A
C1534      C1539   1.490       .  S
C1535      C1536   1.405       .  A
C1535      F1540   1.358       .  S
C1536      C1537   1.409       .  A
C1536      F1552   1.357       .  S
C1537      C1538   1.409       .  A
C1538      F1541   1.358       .  S
C1539      C1542   1.407       .  A
C1539      C1546   1.407       .  A
C1542      C1543   1.401       .  A
C1542      F1547   1.358       .  S
C1543      C1544   1.408       .  A
C1543      F1549   1.358       .  S
C1544      C1545   1.408       .  A
C1545      C1546   1.405       .  A
C1545      F1548   1.357       .  S
C1546      F1550   1.358       .  S
C1553      C1554   1.403       .  A
C1553      C1558   1.398       .  A
C1553      F1571   1.358       .  S
C1554      C1555   1.405       .  A
C1554      C1559   1.482       .  S
C1555      C1556   1.403       .  A
C1555      F1560   1.358       .  S
C1556      C1557   1.411       .  A
C1556      F1572   1.357       .  S
C1557      C1558   1.410       .  A
C1558      F1561   1.357       .  S
C1559      C1562   1.405       .  A
C1559      C1566   1.403       .  A
C1562      C1563   1.404       .  A
C1562      F1567   1.358       .  S
C1563      C1564   1.410       .  A
C1563      F1569   1.357       .  S
C1564      C1565   1.409       .  A
C1565      C1566   1.397       .  A
C1565      F1568   1.357       .  S
C1566      F1570   1.358       .  S
C1573      C1574   1.406       .  A
C1573      C1578   1.400       .  A
C1573      F1591   1.358       .  S
C1574      C1575   1.407       .  A
C1574      C1579   1.488       .  S
C1575      C1576   1.404       .  A
C1575      F1580   1.358       .  S
C1576      C1577   1.407       .  A
C1576      F1592   1.357       .  S
C1577      C1578   1.407       .  A
C1578      F1581   1.358       .  S
C1579      C1582   1.406       .  A
C1579      C1586   1.408       .  A
C1582      C1583   1.400       .  A
C1582      F1587   1.358       .  S
C1583      C1584   1.408       .  A
C1583      F1589   1.358       .  S
C1584      C1585   1.407       .  A
C1585      C1586   1.403       .  A
C1585      F1588   1.357       .  S
C1586      F1590   1.358       .  S
C1593      C1594   1.406       .  A
C1593      C1598   1.405       .  A
C1593      F1611   1.357       .  S
C1594      C1595   1.402       .  A
C1594      C1599   1.482       .  S
C1595      C1596   1.398       .  A
C1595      F1600   1.358       .  S
C1596      C1597   1.410       .  A
C1596      F1612   1.358       .  S
C1597      C1598   1.409       .  A
C1598      F1601   1.357       .  S
C1599      C1602   1.405       .  A
C1599      C1606   1.403       .  A
C1602      C1603   1.404       .  A
C1602      F1607   1.358       .  S
C1603      C1604   1.408       .  A
C1603      F1609   1.357       .  S
C1604      C1605   1.409       .  A
C1605      C1606   1.400       .  A
C1605      F1608   1.358       .  S
C1606      F1610   1.358       .  S
C1613      C1614   1.406       .  A
C1613      C1618   1.405       .  A
C1613      F1631   1.358       .  S
C1614      C1615   1.405       .  A
C1614      C1619   1.486       .  S
C1615      C1616   1.399       .  A
C1615      F1620   1.358       .  S
C1616      C1617   1.408       .  A
C1616      F1632   1.357       .  S
C1617      C1618   1.410       .  A
C1618      F1621   1.358       .  S
C1619      C1622   1.404       .  A
C1619      C1626   1.405       .  A
C1622      C1623   1.400       .  A
C1622      F1627   1.358       .  S
C1623      C1624   1.410       .  A
C1623      F1629   1.357       .  S
C1624      C1625   1.411       .  A
C1625      C1626   1.405       .  A
C1625      F1628   1.357       .  S
C1626      F1630   1.358       .  S
C1633      C1634   1.405       .  A
C1633      C1638   1.401       .  A
C1633      F1651   1.358       .  S
C1634      C1635   1.406       .  A
C1634      C1639   1.486       .  S
C1635      C1636   1.402       .  A
C1635      F1640   1.358       .  S
C1636      C1637   1.409       .  A
C1636      F1652   1.357       .  S
C1637      C1638   1.408       .  A
C1638      F1641   1.358       .  S
C1639      C1642   1.407       .  A
C1639      C1646   1.404       .  A
C1642      C1643   1.405       .  A
C1642      F1647   1.358       .  S
C1643      C1644   1.409       .  A
C1643      F1649   1.357       .  S
C1644      C1645   1.409       .  A
C1645      C1646   1.398       .  A
C1645      F1648   1.358       .  S
C1646      F1650   1.358       .  S
C1653      C1654   1.409       .  A
C1653      C1658   1.400       .  A
C1653      F1671   1.358       .  S
C1654      C1655   1.409       .  A
C1654      C1659   1.491       .  S
C1655      C1656   1.401       .  A
C1655      F1660   1.358       .  S
C1656      C1657   1.404       .  A
C1656      F1672   1.358       .  S
C1657      C1658   1.403       .  A
C1658      F1661   1.358       .  S
C1659      C1662   1.407       .  A
C1659      C1666   1.408       .  A
C1662      C1663   1.397       .  A
C1662      F1667   1.358       .  S
C1663      C1664   1.409       .  A
C1663      F1669   1.357       .  S
C1664      C1665   1.410       .  A
C1665      C1666   1.403       .  A
C1665      F1668   1.357       .  S
C1666      F1670   1.358       .  S
C1673      C1674   1.403       .  A
C1673      C1678   1.404       .  A
C1673      F1691   1.358       .  S
C1674      C1675   1.401       .  A
C1674      C1679   1.479       .  S
C1675      C1676   1.398       .  A
C1675      F1680   1.358       .  S
C1676      C1677   1.411       .  A
C1676      F1692   1.357       .  S
C1677      C1678   1.412       .  A
C1678      F1681   1.357       .  S
C1679      C1682   1.403       .  A
C1679      C1686   1.404       .  A
C1682      C1683   1.400       .  A
C1682      F1687   1.358       .  S
C1683      C1684   1.408       .  A
C1683      F1689   1.357       .  S
C1684      C1685   1.408       .  A
C1685      C1686   1.402       .  A
C1685      F1688   1.358       .  S
C1686      F1690   1.358       .  S
C1693      C1694   1.404   1_554  A
C1693      C1698   1.400   1_655  A
C1693      F1711   1.358       .  S
C1694      C1695   1.406   1_655  A
C1694      C1699   1.487       .  S
C1695      C1696   1.404   1_556  A
C1695      F1700   1.358       .  S
C1696      C1697   1.409       .  A
C1696      F1712   1.357   1_554  S
C1697      C1698   1.410       .  A
C1698      F1701   1.358       .  S
C1699      C1702   1.408       .  A
C1699      C1706   1.405       .  A
C1702      C1703   1.406       .  A
C1702      F1707   1.358       .  S
C1703      C1704   1.407       .  A
C1703      F1709   1.358       .  S
C1704      C1705   1.406       .  A
C1705      C1706   1.399       .  A
C1705      F1708   1.358       .  S
C1706      F1710   1.358       .  S
C1713      C1714   1.405       .  A
C1713      C1718   1.400       .  A
C1713      F1731   1.358       .  S
C1714      C1715   1.405       .  A
C1714      C1719   1.488       .  S
C1715      C1716   1.402       .  A
C1715      F1720   1.358       .  S
C1716      C1717   1.411       .  A
C1716      F1732   1.356       .  S
C1717      C1718   1.412       .  A
C1718      F1721   1.357       .  S
C1719      C1722   1.406       .  A
C1719      C1726   1.407       .  A
C1722      C1723   1.399       .  A
C1722      F1727   1.358       .  S
C1723      C1724   1.408       .  A
C1723      F1729   1.358       .  S
C1724      C1725   1.407       .  A
C1725      C1726   1.403       .  A
C1725      F1728   1.357       .  S
C1726      F1730   1.358       .  S
C1733      C1734   1.405       .  A
C1733      C1738   1.400       .  A
C1733      F1751   1.358       .  S
C1734      C1735   1.407   1_556  A
C1734      C1739   1.485   1_455  S
C1735      C1736   1.403       .  A
C1735      F1740   1.358   1_455  S
C1736      C1737   1.406       .  A
C1736      F1752   1.357       .  S
C1737      C1738   1.408   1_554  A
C1738      F1741   1.358       .  S
C1739      C1742   1.407       .  A
C1739      C1746   1.404       .  A
C1742      C1743   1.406       .  A
C1742      F1747   1.358       .  S
C1743      C1744   1.410       .  A
C1743      F1749   1.357       .  S
C1744      C1745   1.408       .  A
C1745      C1746   1.397       .  A
C1745      F1748   1.358       .  S
C1746      F1750   1.358   1_556  S
C1753      C1754   1.402       .  A
C1753      C1758   1.398       .  A
C1753      F1771   1.358       .  S
C1754      C1755   1.403       .  A
C1754      C1759   1.476       .  S
C1755      C1756   1.401       .  A
C1755      F1760   1.358       .  S
C1756      C1757   1.410       .  A
C1756      F1772   1.357       .  S
C1757      C1758   1.409       .  A
C1758      F1761   1.357       .  S
C1759      C1762   1.402       .  A
C1759      C1766   1.403       .  A
C1762      C1763   1.398       .  A
C1762      F1767   1.358       .  S
C1763      C1764   1.408       .  A
C1763      F1769   1.358       .  S
C1764      C1765   1.409       .  A
C1765      C1766   1.400       .  A
C1765      F1768   1.357       .  S
C1766      F1770   1.358       .  S
C1773      C1774   1.404       .  A
C1773      C1778   1.401       .  A
C1773      F1791   1.358       .  S
C1774      C1775   1.406       .  A
C1774      C1779   1.488       .  S
C1775      C1776   1.404       .  A
C1775      F1780   1.358       .  S
C1776      C1777   1.411       .  A
C1776      F1792   1.357       .  S
C1777      C1778   1.411       .  A
C1778      F1781   1.357       .  S
C1779      C1782   1.406       .  A
C1779      C1786   1.406       .  A
C1782      C1783   1.400       .  A
C1782      F1787   1.358       .  S
C1783      C1784   1.409       .  A
C1783      F1789   1.358       .  S
C1784      C1785   1.408       .  A
C1785      C1786   1.404       .  A
C1785      F1788   1.357       .  S
C1786      F1790   1.357       .  S
C1793      C1794   1.407       .  A
C1793      C1798   1.404       .  A
C1793      F1811   1.358       .  S
C1794      C1795   1.404       .  A
C1794      C1799   1.482       .  S
C1795      C1796   1.397       .  A
C1795      F1800   1.358       .  S
C1796      C1797   1.407       .  A
C1796      F1812   1.358       .  S
C1797      C1798   1.407       .  A
C1798      F1801   1.357       .  S
C1799      C1802   1.404       .  A
C1799      C1806   1.406       .  A
C1802      C1803   1.398       .  A
C1802      F1807   1.358       .  S
C1803      C1804   1.407       .  A
C1803      F1809   1.358       .  S
C1804      C1805   1.408       .  A
C1805      C1806   1.402       .  A
C1805      F1808   1.357       .  S
C1806      F1810   1.358       .  S
C1813      C1814   1.403       .  A
C1813      C1818   1.398       .  A
C1813      F1831   1.358       .  S
C1814      C1815   1.405       .  A
C1814      C1819   1.481       .  S
C1815      C1816   1.403       .  A
C1815      F1820   1.358       .  S
C1816      C1817   1.409       .  A
C1816      F1832   1.357       .  S
C1817      C1818   1.408       .  A
C1818      F1821   1.358       .  S
C1819      C1822   1.404       .  A
C1819      C1826   1.404       .  A
C1822      C1823   1.400       .  A
C1822      F1827   1.358       .  S
C1823      C1824   1.409       .  A
C1823      F1829   1.358       .  S
C1824      C1825   1.409       .  A
C1825      C1826   1.401       .  A
C1825      F1828   1.357       .  S
C1826      F1830   1.358       .  S
C1833      C1834   1.402       .  A
C1833      C1838   1.399       .  A
C1833      F1851   1.358       .  S
C1834      C1835   1.403       .  A
C1834      C1839   1.478       .  S
C1835      C1836   1.402       .  A
C1835      F1840   1.357       .  S
C1836      C1837   1.410       .  A
C1836      F1852   1.357       .  S
C1837      C1838   1.411       .  A
C1838      F1841   1.358       .  S
C1839      C1842   1.401       .  A
C1839      C1846   1.403       .  A
C1842      C1843   1.399       .  A
C1842      F1847   1.358       .  S
C1843      C1844   1.411       .  A
C1843      F1849   1.358       .  S
C1844      C1845   1.410       .  A
C1845      C1846   1.403       .  A
C1845      F1848   1.357       .  S
C1846      F1850   1.358       .  S
C1853      C1854   1.405       .  A
C1853      C1858   1.402       .  A
C1853      F1871   1.358       .  S
C1854      C1855   1.403       .  A
C1854      C1859   1.479       .  S
C1855      C1856   1.396       .  A
C1855      F1860   1.358       .  S
C1856      C1857   1.408       .  A
C1856      F1872   1.358       .  S
C1857      C1858   1.408       .  A
C1858      F1861   1.357       .  S
C1859      C1862   1.404       .  A
C1859      C1866   1.405       .  A
C1862      C1863   1.398       .  A
C1862      F1867   1.358       .  S
C1863      C1864   1.407       .  A
C1863      F1869   1.358       .  S
C1864      C1865   1.408       .  A
C1865      C1866   1.401       .  A
C1865      F1868   1.357       .  S
C1866      F1870   1.358       .  S
C1873      C1874   1.407       .  A
C1873      C1878   1.406       .  A
C1873      F1891   1.357       .  S
C1874      C1875   1.404       .  A
C1874      C1879   1.486       .  S
C1875      C1876   1.398       .  A
C1875      F1880   1.358       .  S
C1876      C1877   1.409       .  A
C1876      F1892   1.357       .  S
C1877      C1878   1.410       .  A
C1878      F1881   1.358       .  S
C1879      C1882   1.404       .  A
C1879      C1886   1.404       .  A
C1882      C1883   1.402       .  A
C1882      F1887   1.358       .  S
C1883      C1884   1.411       .  A
C1883      F1889   1.357       .  S
C1884      C1885   1.412       .  A
C1885      C1886   1.404       .  A
C1885      F1888   1.357       .  S
C1886      F1890   1.358       .  S
C1893      C1894   1.403       .  A
C1893      C1898   1.401       .  A
C1893      F1911   1.358       .  S
C1894      C1895   1.402       .  A
C1894      C1899   1.476       .  S
C1895      C1896   1.396       .  A
C1895      F1900   1.358       .  S
C1896      C1897   1.409       .  A
C1896      F1912   1.357       .  S
C1897      C1898   1.410       .  A
C1898      F1901   1.357       .  S
C1899      C1902   1.402       .  A
C1899      C1906   1.405       .  A
C1902      C1903   1.395       .  A
C1902      F1907   1.358       .  S
C1903      C1904   1.406       .  A
C1903      F1909   1.358       .  S
C1904      C1905   1.408       .  A
C1905      C1906   1.403       .  A
C1905      F1908   1.358       .  S
C1906      F1910   1.358       .  S
C1913      C1914   1.405       .  A
C1913      C1918   1.400       .  A
C1913      F1931   1.358       .  S
C1914      C1915   1.404       .  A
C1914      C1919   1.482       .  S
C1915      C1916   1.400       .  A
C1915      F1920   1.358       .  S
C1916      C1917   1.409       .  A
C1916      F1932   1.358       .  S
C1917      C1918   1.408       .  A
C1918      F1921   1.357       .  S
C1919      C1922   1.404       .  A
C1919      C1926   1.405       .  A
C1922      C1923   1.398       .  A
C1922      F1927   1.358       .  S
C1923      C1924   1.408       .  A
C1923      F1929   1.358       .  S
C1924      C1925   1.408       .  A
C1925      C1926   1.402       .  A
C1925      F1928   1.357       .  S
C1926      F1930   1.358       .  S
C1933      C1934   1.403       .  A
C1933      C1938   1.398       .  A
C1933      F1951   1.358   1_545  S
C1934      C1935   1.405       .  A
C1934      C1939   1.479   1_545  S
C1935      C1936   1.403       .  A
C1935      F1940   1.357       .  S
C1936      C1937   1.408       .  A
C1936      F1952   1.357       .  S
C1937      C1938   1.408       .  A
C1938      F1941   1.358       .  S
C1939      C1942   1.404       .  A
C1939      C1946   1.401   1_556  A
C1942      C1943   1.405   1_556  A
C1942      F1947   1.357       .  S
C1943      C1944   1.411       .  A
C1943      F1949   1.357       .  S
C1944      C1945   1.411       .  A
C1945      C1946   1.397       .  A
C1945      F1948   1.357       .  S
C1946      F1950   1.358   1_565  S
C1953      C1954   1.403       .  A
C1953      C1958   1.398       .  A
C1953      F1971   1.358       .  S
C1954      C1955   1.405       .  A
C1954      C1959   1.480       .  S
C1955      C1956   1.403       .  A
C1955      F1960   1.358       .  S
C1956      C1957   1.408       .  A
C1956      F1972   1.357       .  S
C1957      C1958   1.408       .  A
C1958      F1961   1.358       .  S
C1959      C1962   1.404       .  A
C1959      C1966   1.404       .  A
C1962      C1963   1.400       .  A
C1962      F1967   1.358       .  S
C1963      C1964   1.408       .  A
C1963      F1969   1.358       .  S
C1964      C1965   1.408       .  A
C1965      C1966   1.401       .  A
C1965      F1968   1.357       .  S
C1966      F1970   1.358       .  S
C1973      C1974   1.403   1_554  A
C1973      C1978   1.396       .  A
C1973      F1991   1.358   1_565  S
C1974      C1975   1.406       .  A
C1974      C1979   1.476   1_565  S
C1975      C1976   1.401       .  A
C1975      F1980   1.358       .  S
C1976      C1977   1.404   1_556  A
C1976      F1992   1.358       .  S
C1977      C1978   1.405       .  A
C1978      F1981   1.358       .  S
C1979      C1982   1.402       .  A
C1979      C1986   1.405       .  A
C1982      C1983   1.394       .  A
C1982      F1987   1.358   1_545  S
C1983      C1984   1.407       .  A
C1983      F1989   1.358       .  S
C1984      C1985   1.408       .  A
C1985      C1986   1.403       .  A
C1985      F1988   1.357       .  S
C1986      F1990   1.358       .  S
C1993      C1994   1.404       .  A
C1993      C1998   1.399       .  A
C1993      F2011   1.358       .  S
C1994      C1995   1.404       .  A
C1994      C1999   1.480       .  S
C1995      C1996   1.402       .  A
C1995      F2000   1.358       .  S
C1996      C1997   1.409       .  A
C1996      F2012   1.357       .  S
C1997      C1998   1.408       .  A
C1998      F2001   1.358       .  S
C1999      C2002   1.405       .  A
C1999      C2006   1.402       .  A
C2002      C2003   1.404       .  A
C2002      F2007   1.358       .  S
C2003      C2004   1.409       .  A
C2003      F2009   1.357       .  S
C2004      C2005   1.409       .  A
C2005      C2006   1.396       .  A
C2005      F2008   1.357       .  S
C2006      F2010   1.358       .  S
C2013      C2014   1.404       .  A
C2013      C2018   1.401       .  A
C2013      F2031   1.358       .  S
C2014      C2015   1.406       .  A
C2014      C2019   1.486       .  S
C2015      C2016   1.404       .  A
C2015      F2020   1.358       .  S
C2016      C2017   1.409       .  A
C2016      F2032   1.357       .  S
C2017      C2018   1.410       .  A
C2018      F2021   1.358       .  S
C2019      C2022   1.405       .  A
C2019      C2026   1.404       .  A
C2022      C2023   1.404       .  A
C2022      F2027   1.358       .  S
C2023      C2024   1.410       .  A
C2023      F2029   1.357       .  S
C2024      C2025   1.410       .  A
C2025      C2026   1.402       .  A
C2025      F2028   1.357       .  S
C2026      F2030   1.358       .  S
C2033      C2034   1.409       .  A
C2033      C2038   1.404       .  A
C2033      F2051   1.358       .  S
C2034      C2035   1.407       .  A
C2034      C2039   1.490       .  S
C2035      C2036   1.397       .  A
C2035      F2040   1.358       .  S
C2036      C2037   1.406       .  A
C2036      F2052   1.358       .  S
C2037      C2038   1.408       .  A
C2038      F2041   1.358       .  S
C2039      C2042   1.404       .  A
C2039      C2046   1.404       .  A
C2042      C2043   1.403       .  A
C2042      F2047   1.358       .  S
C2043      C2044   1.417       .  A
C2043      F2049   1.355       .  S
C2044      C2045   1.415       .  A
C2045      C2046   1.398       .  A
C2045      F2048   1.354       .  S
C2046      F2050   1.358       .  S
C2053      C2054   1.406       .  A
C2053      C2058   1.403       .  A
C2053      F2071   1.358       .  S
C2054      C2055   1.404       .  A
C2054      C2059   1.483       .  S
C2055      C2056   1.397       .  A
C2055      F2060   1.358       .  S
C2056      C2057   1.410       .  A
C2056      F2072   1.357       .  S
C2057      C2058   1.409       .  A
C2058      F2061   1.357       .  S
C2059      C2062   1.405       .  A
C2059      C2066   1.405       .  A
C2062      C2063   1.401       .  A
C2062      F2067   1.358       .  S
C2063      C2064   1.409       .  A
C2063      F2069   1.357       .  S
C2064      C2065   1.408       .  A
C2065      C2066   1.399       .  A
C2065      F2068   1.357       .  S
C2066      F2070   1.358       .  S
C2073      C2074   1.407       .  A
C2073      C2078   1.404       .  A
C2073      F2091   1.358       .  S
C2074      C2075   1.404       .  A
C2074      C2079   1.482   1_565  S
C2075      C2076   1.398       .  A
C2075      F2080   1.358   1_565  S
C2076      C2077   1.407       .  A
C2076      F2092   1.358       .  S
C2077      C2078   1.407       .  A
C2078      F2081   1.357       .  S
C2079      C2082   1.407       .  A
C2079      C2086   1.403       .  A
C2082      C2083   1.404       .  A
C2082      F2087   1.357       .  S
C2083      C2084   1.406       .  A
C2083      F2089   1.357       .  S
C2084      C2085   1.408       .  A
C2085      C2086   1.397       .  A
C2085      F2088   1.358       .  S
C2086      F2090   1.358   1_545  S
C2093      C2094   1.402       .  A
C2093      C2098   1.399       .  A
C2093      F2111   1.358       .  S
C2094      C2095   1.403       .  A
C2094      C2099   1.480       .  S
C2095      C2096   1.402       .  A
C2095      F2100   1.358       .  S
C2096      C2097   1.411       .  A
C2096      F2112   1.357       .  S
C2097      C2098   1.411       .  A
C2098      F2101   1.357       .  S
C2099      C2102   1.403       .  A
C2099      C2106   1.402       .  A
C2102      C2103   1.401       .  A
C2102      F2107   1.358       .  S
C2103      C2104   1.412       .  A
C2103      F2109   1.357       .  S
C2104      C2105   1.411       .  A
C2105      C2106   1.400       .  A
C2105      F2108   1.357       .  S
C2106      F2110   1.358       .  S
C2113      C2114   1.407       .  A
C2113      C2118   1.396       .  A
C2113      F2131   1.358   1_545  S
C2114      C2115   1.409       .  A
C2114      C2119   1.490   1_545  S
C2115      C2116   1.406       .  A
C2115      F2120   1.357       .  S
C2116      C2117   1.406       .  A
C2116      F2132   1.358       .  S
C2117      C2118   1.404       .  A
C2118      F2121   1.358       .  S
C2119      C2122   1.408       .  A
C2119      C2126   1.405       .  A
C2122      C2123   1.409       .  A
C2122      F2127   1.358       .  S
C2123      C2124   1.412       .  A
C2123      F2129   1.357       .  S
C2124      C2125   1.410       .  A
C2125      C2126   1.393       .  A
C2125      F2128   1.357       .  S
C2126      F2130   1.359       .  S
C2133      C2134   1.404       .  A
C2133      C2138   1.399       .  A
C2133      F2151   1.358       .  S
C2134      C2135   1.403       .  A
C2134      C2139   1.479       .  S
C2135      C2136   1.397       .  A
C2135      F2140   1.358       .  S
C2136      C2137   1.410       .  A
C2136      F2152   1.358       .  S
C2137      C2138   1.408       .  A
C2138      F2141   1.357       .  S
C2139      C2142   1.403       .  A
C2139      C2146   1.404       .  A
C2142      C2143   1.397       .  A
C2142      F2147   1.358       .  S
C2143      C2144   1.410       .  A
C2143      F2149   1.357       .  S
C2144      C2145   1.409       .  A
C2145      C2146   1.399       .  A
C2145      F2148   1.357       .  S
C2146      F2150   1.358       .  S
C2153      C2154   1.402       .  A
C2153      C2158   1.400       .  A
C2153      F2171   1.358       .  S
C2154      C2155   1.404       .  A
C2154      C2159   1.484       .  S
C2155      C2156   1.405       .  A
C2155      F2160   1.358       .  S
C2156      C2157   1.412       .  A
C2156      F2172   1.357       .  S
C2157      C2158   1.412       .  A
C2158      F2161   1.357       .  S
C2159      C2162   1.404       .  A
C2159      C2166   1.403       .  A
C2162      C2163   1.404       .  A
C2162      F2167   1.358       .  S
C2163      C2164   1.411       .  A
C2163      F2169   1.357       .  S
C2164      C2165   1.410       .  A
C2165      C2166   1.401       .  A
C2165      F2168   1.357       .  S
C2166      F2170   1.358       .  S
C2173      C2174   1.405       .  A
C2173      C2178   1.394       .  A
C2173      F2191   1.358       .  S
C2174      C2175   1.406       .  A
C2174      C2179   1.482       .  S
C2175      C2176   1.403       .  A
C2175      F2180   1.358       .  S
C2176      C2177   1.408       .  A
C2176      F2192   1.358       .  S
C2177      C2178   1.406       .  A
C2178      F2181   1.358       .  S
C2179      C2182   1.404       .  A
C2179      C2186   1.406       .  A
C2182      C2183   1.396       .  A
C2182      F2187   1.358       .  S
C2183      C2184   1.407       .  A
C2183      F2189   1.358       .  S
C2184      C2185   1.409       .  A
C2185      C2186   1.402       .  A
C2185      F2188   1.357       .  S
C2186      F2190   1.358       .  S
C2193      C2194   1.406       .  A
C2193      C2198   1.398       .  A
C2193      F2211   1.358       .  S
C2194      C2195   1.408       .  A
C2194      C2199   1.487       .  S
C2195      C2196   1.404       .  A
C2195      F2200   1.358       .  S
C2196      C2197   1.407       .  A
C2196      F2212   1.357       .  S
C2197      C2198   1.406       .  A
C2198      F2201   1.358       .  S
C2199      C2202   1.405       .  A
C2199      C2206   1.406       .  A
C2202      C2203   1.396       .  A
C2202      F2207   1.358       .  S
C2203      C2204   1.410       .  A
C2203      F2209   1.357       .  S
C2204      C2205   1.411       .  A
C2205      C2206   1.404       .  A
C2205      F2208   1.357       .  S
C2206      F2210   1.357       .  S
C2213      C2214   1.405       .  A
C2213      C2218   1.404       .  A
C2213      F2231   1.357       .  S
C2214      C2215   1.404       .  A
C2214      C2219   1.487       .  S
C2215      C2216   1.399       .  A
C2215      F2220   1.358       .  S
C2216      C2217   1.411       .  A
C2216      F2232   1.357       .  S
C2217      C2218   1.411       .  A
C2218      F2221   1.357       .  S
C2219      C2222   1.404       .  A
C2219      C2226   1.406       .  A
C2222      C2223   1.399       .  A
C2222      F2227   1.358       .  S
C2223      C2224   1.410       .  A
C2223      F2229   1.357       .  S
C2224      C2225   1.410       .  A
C2225      C2226   1.405       .  A
C2225      F2228   1.357       .  S
C2226      F2230   1.358       .  S
C2233      C2234   1.407       .  A
C2233      C2238   1.405       .  A
C2233      F2251   1.358       .  S
C2234      C2235   1.406       .  A
C2234      C2239   1.488       .  S
C2235      C2236   1.400       .  A
C2235      F2240   1.358       .  S
C2236      C2237   1.408       .  A
C2236      F2252   1.358       .  S
C2237      C2238   1.408       .  A
C2238      F2241   1.357       .  S
C2239      C2242   1.405       .  A
C2239      C2246   1.407       .  A
C2242      C2243   1.400       .  A
C2242      F2247   1.358       .  S
C2243      C2244   1.409       .  A
C2243      F2249   1.358       .  S
C2244      C2245   1.408       .  A
C2245      C2246   1.404       .  A
C2245      F2248   1.357       .  S
C2246      F2250   1.358       .  S
C2253      C2254   1.404       .  A
C2253      C2258   1.399       .  A
C2253      F2271   1.358       .  S
C2254      C2255   1.406       .  A
C2254      C2259   1.484       .  S
C2255      C2256   1.403       .  A
C2255      F2260   1.358       .  S
C2256      C2257   1.409       .  A
C2256      F2272   1.357       .  S
C2257      C2258   1.408       .  A
C2258      F2261   1.358       .  S
C2259      C2262   1.405       .  A
C2259      C2266   1.406       .  A
C2262      C2263   1.401       .  A
C2262      F2267   1.358       .  S
C2263      C2264   1.407       .  A
C2263      F2269   1.357       .  S
C2264      C2265   1.407       .  A
C2265      C2266   1.401       .  A
C2265      F2268   1.358       .  S
C2266      F2270   1.358       .  S
C2273      C2274   1.405       .  A
C2273      C2278   1.407       .  A
C2273      F2291   1.357       .  S
C2274      C2275   1.403       .  A
C2274      C2279   1.485       .  S
C2275      C2276   1.400       .  A
C2275      F2280   1.358       .  S
C2276      C2277   1.410       .  A
C2276      F2292   1.358       .  S
C2277      C2278   1.410       .  A
C2278      F2281   1.357       .  S
C2279      C2282   1.403       .  A
C2279      C2286   1.406       .  A
C2282      C2283   1.401       .  A
C2282      F2287   1.358       .  S
C2283      C2284   1.408       .  A
C2283      F2289   1.358       .  S
C2284      C2285   1.408       .  A
C2285      C2286   1.406       .  A
C2285      F2288   1.357       .  S
C2286      F2290   1.357       .  S
C2293      C2294   1.402       .  A
C2293      C2298   1.399       .  A
C2293      F2311   1.358       .  S
C2294      C2295   1.404       .  A
C2294      C2299   1.481       .  S
C2295      C2296   1.404       .  A
C2295      F2300   1.358       .  S
C2296      C2297   1.410       .  A
C2296      F2312   1.357       .  S
C2297      C2298   1.410       .  A
C2298      F2301   1.357       .  S
C2299      C2302   1.402       .  A
C2299      C2306   1.404       .  A
C2302      C2303   1.399       .  A
C2302      F2307   1.358       .  S
C2303      C2304   1.411       .  A
C2303      F2309   1.357       .  S
C2304      C2305   1.410       .  A
C2305      C2306   1.403       .  A
C2305      F2308   1.357       .  S
C2306      F2310   1.358       .  S
C2313      C2314   1.405       .  A
C2313      C2318   1.400       .  A
C2313      F2331   1.358       .  S
C2314      C2315   1.404       .  A
C2314      C2319   1.487       .  S
C2315      C2316   1.402       .  A
C2315      F2320   1.358       .  S
C2316      C2317   1.414       .  A
C2316      F2332   1.357       .  S
C2317      C2318   1.411       .  A
C2318      F2321   1.356       .  S
C2319      C2322   1.404       .  A
C2319      C2326   1.405       .  A
C2322      C2323   1.398       .  A
C2322      F2327   1.358       .  S
C2323      C2324   1.411       .  A
C2323      F2329   1.357       .  S
C2324      C2325   1.412       .  A
C2325      C2326   1.405       .  A
C2325      F2328   1.357       .  S
C2326      F2330   1.358       .  S
C2333      C2334   1.406       .  A
C2333      C2338   1.402       .  A
C2333      F2351   1.358       .  S
C2334      C2335   1.407       .  A
C2334      C2339   1.490       .  S
C2335      C2336   1.403       .  A
C2335      F2340   1.358       .  S
C2336      C2337   1.408       .  A
C2336      F2352   1.357       .  S
C2337      C2338   1.410       .  A
C2338      F2341   1.358       .  S
C2339      C2342   1.409       .  A
C2339      C2346   1.405       .  A
C2342      C2343   1.407       .  A
C2342      F2347   1.358       .  S
C2343      C2344   1.409       .  A
C2343      F2349   1.357       .  S
C2344      C2345   1.408       .  A
C2345      C2346   1.397       .  A
C2345      F2348   1.358       .  S
C2346      F2350   1.358       .  S
C2353      C2354   1.403       .  A
C2353      C2358   1.399       .  A
C2353      F2371   1.358       .  S
C2354      C2355   1.404       .  A
C2354      C2359   1.481       .  S
C2355      C2356   1.403       .  A
C2355      F2360   1.358       .  S
C2356      C2357   1.410       .  A
C2356      F2372   1.357       .  S
C2357      C2358   1.410       .  A
C2358      F2361   1.357       .  S
C2359      C2362   1.404       .  A
C2359      C2366   1.403       .  A
C2362      C2363   1.402       .  A
C2362      F2367   1.358       .  S
C2363      C2364   1.410       .  A
C2363      F2369   1.357       .  S
C2364      C2365   1.410       .  A
C2365      C2366   1.399       .  A
C2365      F2368   1.358       .  S
C2366      F2370   1.358       .  S
C2373      C2374   1.405       .  A
C2373      C2378   1.403       .  A
C2373      F2391   1.358       .  S
C2374      C2375   1.404       .  A
C2374      C2379   1.482       .  S
C2375      C2376   1.399       .  A
C2375      F2380   1.358       .  S
C2376      C2377   1.409       .  A
C2376      F2392   1.358       .  S
C2377      C2378   1.408       .  A
C2378      F2381   1.357       .  S
C2379      C2382   1.405       .  A
C2379      C2386   1.404       .  A
C2382      C2383   1.402       .  A
C2382      F2387   1.358       .  S
C2383      C2384   1.408       .  A
C2383      F2389   1.357       .  S
C2384      C2385   1.408       .  A
C2385      C2386   1.401       .  A
C2385      F2388   1.358       .  S
C2386      F2390   1.358       .  S
C2393      C2394   1.404       .  A
C2393      C2398   1.400       .  A
C2393      F2411   1.358       .  S
C2394      C2395   1.402       .  A
C2394      C2399   1.475       .  S
C2395      C2396   1.395       .  A
C2395      F2400   1.358       .  S
C2396      C2397   1.409       .  A
C2396      F2412   1.358       .  S
C2397      C2398   1.408       .  A
C2398      F2401   1.357       .  S
C2399      C2402   1.403       .  A
C2399      C2406   1.403       .  A
C2402      C2403   1.398       .  A
C2402      F2407   1.358       .  S
C2403      C2404   1.408       .  A
C2403      F2409   1.357       .  S
C2404      C2405   1.407       .  A
C2405      C2406   1.398       .  A
C2405      F2408   1.358       .  S
C2406      F2410   1.358       .  S
C2413      C2414   1.402       .  A
C2413      C2418   1.398       .  A
C2413      F2431   1.358       .  S
C2414      C2415   1.404       .  A
C2414      C2419   1.479       .  S
C2415      C2416   1.402       .  A
C2415      F2420   1.357       .  S
C2416      C2417   1.409       .  A
C2416      F2432   1.357       .  S
C2417      C2418   1.410       .  A
C2418      F2421   1.358       .  S
C2419      C2422   1.405       .  A
C2419      C2426   1.402       .  A
C2422      C2423   1.403       .  A
C2422      F2427   1.358       .  S
C2423      C2424   1.408       .  A
C2423      F2429   1.357       .  S
C2424      C2425   1.409       .  A
C2425      C2426   1.398       .  A
C2425      F2428   1.358       .  S
C2426      F2430   1.358       .  S
C2433      C2434   1.406       .  A
C2433      C2438   1.402       .  A
C2433      F2451   1.358       .  S
C2434      C2435   1.405       .  A
C2434      C2439   1.487       .  S
C2435      C2436   1.400       .  A
C2435      F2440   1.358       .  S
C2436      C2437   1.411       .  A
C2436      F2452   1.357       .  S
C2437      C2438   1.410       .  A
C2438      F2441   1.357       .  S
C2439      C2442   1.405       .  A
C2439      C2446   1.405       .  A
C2442      C2443   1.399       .  A
C2442      F2447   1.358       .  S
C2443      C2444   1.411       .  A
C2443      F2449   1.357       .  S
C2444      C2445   1.412       .  A
C2445      C2446   1.402       .  A
C2445      F2448   1.357       .  S
C2446      F2450   1.358       .  S
C2453      C2454   1.406       .  A
C2453      C2458   1.402       .  A
C2453      F2471   1.358       .  S
C2454      C2455   1.403       .  A
C2454      C2459   1.484       .  S
C2455      C2456   1.398       .  A
C2455      F2460   1.358       .  S
C2456      C2457   1.411       .  A
C2456      F2472   1.357       .  S
C2457      C2458   1.409       .  A
C2458      F2461   1.357       .  S
C2459      C2462   1.406       .  A
C2459      C2466   1.405       .  A
C2462      C2463   1.402       .  A
C2462      F2467   1.358       .  S
C2463      C2464   1.409       .  A
C2463      F2469   1.357       .  S
C2464      C2465   1.408       .  A
C2465      C2466   1.398       .  A
C2465      F2468   1.358       .  S
C2466      F2470   1.358       .  S
C2473      C2474   1.405       .  A
C2473      C2478   1.401       .  A
C2473      F2491   1.358       .  S
C2474      C2475   1.405       .  A
C2474      C2479   1.480       .  S
C2475      C2476   1.396       .  A
C2475      F2480   1.358       .  S
C2476      C2477   1.407       .  A
C2476      F2492   1.358       .  S
C2477      C2478   1.408       .  A
C2478      F2481   1.357       .  S
C2479      C2482   1.402       .  A
C2479      C2486   1.406       .  A
C2482      C2483   1.394       .  A
C2482      F2487   1.358       .  S
C2483      C2484   1.409       .  A
C2483      F2489   1.357       .  S
C2484      C2485   1.409       .  A
C2485      C2486   1.403       .  A
C2485      F2488   1.357       .  S
C2486      F2490   1.358       .  S
C2493      C2494   1.406       .  A
C2493      C2498   1.399       .  A
C2493      F2511   1.358       .  S
C2494      C2495   1.408       .  A
C2494      C2499   1.494       .  S
C2495      C2496   1.405       .  A
C2495      F2500   1.358       .  S
C2496      C2497   1.411       .  A
C2496      F2512   1.357       .  S
C2497      C2498   1.410       .  A
C2498      F2501   1.357       .  S
C2499      C2502   1.406       .  A
C2499      C2506   1.407       .  A
C2502      C2503   1.403       .  A
C2502      F2507   1.358       .  S
C2503      C2504   1.413       .  A
C2503      F2509   1.357       .  S
C2504      C2505   1.411       .  A
C2505      C2506   1.403       .  A
C2505      F2508   1.356       .  S
C2506      F2510   1.358       .  S
C2513      C2514   1.406       .  A
C2513      C2518   1.402   1_655  A
C2513      F2531   1.358       .  S
C2514      C2515   1.404   1_655  A
C2514      C2519   1.482       .  S
C2515      C2516   1.398       .  A
C2515      F2520   1.358       .  S
C2516      C2517   1.408       .  A
C2516      F2532   1.358       .  S
C2517      C2518   1.407       .  A
C2518      F2521   1.357       .  S
C2519      C2522   1.405       .  A
C2519      C2526   1.407       .  A
C2522      C2523   1.397       .  A
C2522      F2527   1.358       .  S
C2523      C2524   1.405       .  A
C2523      F2529   1.358       .  S
C2524      C2525   1.405       .  A
C2525      C2526   1.403       .  A
C2525      F2528   1.358       .  S
C2526      F2530   1.358       .  S
C2533      C2534   1.404       .  A
C2533      C2538   1.402       .  A
C2533      F2551   1.358       .  S
C2534      C2535   1.404       .  A
C2534      C2539   1.482       .  S
C2535      C2536   1.399       .  A
C2535      F2540   1.358       .  S
C2536      C2537   1.409       .  A
C2536      F2552   1.358       .  S
C2537      C2538   1.411       .  A
C2538      F2541   1.357       .  S
C2539      C2542   1.404       .  A
C2539      C2546   1.404       .  A
C2542      C2543   1.398       .  A
C2542      F2547   1.358       .  S
C2543      C2544   1.409       .  A
C2543      F2549   1.357       .  S
C2544      C2545   1.410       .  A
C2545      C2546   1.403       .  A
C2545      F2548   1.357       .  S
C2546      F2550   1.358       .  S
C2553      C2554   1.405       .  A
C2553      C2558   1.400   1_655  A
C2553      F2571   1.358       .  S
C2554      C2555   1.406   1_655  A
C2554      C2559   1.483       .  S
C2555      C2556   1.403       .  A
C2555      F2560   1.358       .  S
C2556      C2557   1.407       .  A
C2556      F2572   1.358       .  S
C2557      C2558   1.407       .  A
C2558      F2561   1.358       .  S
C2559      C2562   1.406       .  A
C2559      C2566   1.402       .  A
C2562      C2563   1.406       .  A
C2562      F2567   1.357       .  S
C2563      C2564   1.409       .  A
C2563      F2569   1.357       .  S
C2564      C2565   1.410       .  A
C2565      C2566   1.397       .  A
C2565      F2568   1.358       .  S
C2566      F2570   1.358       .  S
C2573      C2574   1.402       .  A
C2573      C2578   1.398       .  A
C2573      F2591   1.358       .  S
C2574      C2575   1.404       .  A
C2574      C2579   1.478       .  S
C2575      C2576   1.403       .  A
C2575      F2580   1.358       .  S
C2576      C2577   1.410       .  A
C2576      F2592   1.357       .  S
C2577      C2578   1.409       .  A
C2578      F2581   1.357       .  S
C2579      C2582   1.402       .  A
C2579      C2586   1.404       .  A
C2582      C2583   1.399       .  A
C2582      F2587   1.358       .  S
C2583      C2584   1.410       .  A
C2583      F2589   1.357       .  S
C2584      C2585   1.409       .  A
C2585      C2586   1.402       .  A
C2585      F2588   1.357       .  S
C2586      F2590   1.358       .  S
