geometry optimzed in LAMMPS
_audit_creation_date              2020-12-01 
_audit_creation_method            'lammps2cif' 
_symmetry_space_group_name_H-M    'P1' 
_symmetry_Int_Tables_number       1 
_symmetry_cell_setting            triclinic 
loop_ 
_symmetry_equiv_pos_as_xyz 
  x,y,z 
_cell_length_a                    43.12918235 
_cell_length_b                    43.1797772251469 
_cell_length_c                    32.246909705319624 
_cell_angle_alpha                 89.84245325540203 
_cell_angle_beta                  90.19994811582775 
_cell_angle_gamma                 120.49847892552762 
loop_ 
_atom_site_label 
_atom_site_type_symbol 
_atom_site_fract_x 
_atom_site_fract_y 
_atom_site_fract_z 
_atom_site_charge 
Fe1        Fe  0.54065915  0.61101088  0.25052745     1.65800
Fe2        Fe  0.49957662  0.66071883  0.24696039     1.73200
Fe3        Fe  0.59181939  0.70344910  0.24740761     1.54400
O4          O  0.61325652  0.68542856  0.29257759    -0.81600
O5          O  0.51772481  0.69702073  0.19845902    -0.79900
O6          O  0.57670269  0.62604563  0.29814113    -0.84100
O7          O  0.58060538  0.62526080  0.20794023    -0.79000
O8          O  0.57855853  0.72767640  0.29394309    -0.80800
O9          O  0.47517507  0.62000863  0.20299498    -0.83500
C10         C  0.60437470  0.65379670  0.19059719     0.97300
C11         C  0.60406258  0.65528422  0.30911476     1.04700
O12         O  0.54404827  0.65847429  0.24845640    -1.12500
O13         O  0.47575225  0.62449330  0.29567685    -0.74900
O14         O  0.50038579  0.59008846  0.29436178    -0.78400
O15         O  0.61055527  0.68487450  0.20024714    -0.79100
C16         C  0.47840462  0.59827565  0.30940203     0.96200
O17         O  0.50458420  0.59015450  0.20213142    -0.77100
O18         O  0.51896064  0.70217939  0.28993550    -0.82300
C19         C  0.54819103  0.72214624  0.18615603     0.98800
C20         C  0.54927208  0.72533020  0.30528090     1.04700
O21         O  0.57753162  0.72807460  0.20231414    -0.77900
C22         C  0.48045488  0.59578622  0.18806610     1.03000
Fe23       Fe  0.36892991  0.44041192  0.99969114     1.65800
Fe24       Fe  0.32122373  0.48308331  0.50211783     1.73200
Fe25       Fe  0.28014395  0.39077313  0.50035269     1.54400
O26         O  0.29927478  0.37069962  0.45450018    -0.81600
O27         O  0.28238162  0.46052257  0.05061766    -0.79900
O28         O  0.35805423  0.40994841  0.44799089    -0.84100
O29         O  0.35628714  0.39851834  0.03996604    -0.79000
O30         O  0.25651719  0.40463073  0.45398731    -0.80800
O31         O  0.35933399  0.50680923  0.04307459    -0.83500
C32         C  0.32829828  0.37380371  0.05730531     0.97300
C33         C  0.32934445  0.38215531  0.43647083     1.04700
O34         O  0.32431442  0.43897074  0.50046100    -1.12500
O35         O  0.35566161  0.50715403  0.45217211    -0.74900
O36         O  0.39229612  0.48536526  0.45667986    -0.78400
O37         O  0.29696975  0.36804115  0.04937708    -0.79100
C38         C  0.38302687  0.50610705  0.44002787     0.96200
O39         O  0.38703761  0.47538330  0.04924381    -0.77100
O40         O  0.27983298  0.46365860  0.46056367    -0.82300
C41         C  0.25782799  0.43006438  0.06383808     0.98800
C42         C  0.25784084  0.43377849  0.44430347     1.04700
O43         O  0.25246737  0.40056401  0.04853925    -0.77900
C44         C  0.38289418  0.50143447  0.05981604     1.03000
Fe45       Fe  0.06344740  0.44399114  0.25310681     1.65800
Fe46       Fe  0.15424962  0.48386997  0.25328483     1.73200
Fe47       Fe  0.10180476  0.39174376  0.25199855     1.54400
O48         O  0.06496680  0.37246952  0.30046454    -0.81600
O49         O  0.17616635  0.46464069  0.21071897    -0.79900
O50         O  0.03332553  0.39934220  0.28904240    -0.84100
O51         O  0.04469209  0.41322086  0.20104594    -0.79000
O52         O  0.14303229  0.40586957  0.29525191    -0.80800
O53         O  0.14151494  0.50566226  0.20361821    -0.83500
C54         C  0.04311042  0.38424843  0.18997674     0.97300
C55         C  0.03771940  0.37579968  0.30693179     1.04700
O56         O  0.10660172  0.43974741  0.25306468    -1.12500
O57         O  0.13927802  0.51070010  0.29497679    -0.74900
O58         O  0.08026052  0.47561576  0.30546092    -0.78400
O59         O  0.05993632  0.37110278  0.20849614    -0.79100
C60         C  0.11051070  0.50326324  0.31394663     0.96200
O61         O  0.08465308  0.48889445  0.21597197    -0.77100
O62         O  0.17130921  0.46550211  0.30288652    -0.82300
C63         C  0.16610881  0.43497470  0.19262276     0.98800
C64         C  0.16626543  0.43475482  0.31312052     1.04700
O65         O  0.13782657  0.40596298  0.20313806    -0.77900
C66         C  0.11354756  0.50744867  0.19608435     1.03000
Fe67       Fe  0.53701576  0.91796867  0.00426421     1.65800
Fe68       Fe  0.49668687  0.82649297  0.49759815     1.73200
Fe69       Fe  0.58883854  0.87793753  0.49930459     1.54400
O70         O  0.60857080  0.91734530  0.45341974    -0.81600
O71         O  0.51442351  0.80196587  0.03599510    -0.79900
O72         O  0.58138909  0.94845198  0.46614617    -0.84100
O73         O  0.57031753  0.93552543  0.05479016    -0.79000
O74         O  0.57366718  0.83979247  0.45234999    -0.80800
O75         O  0.47186565  0.83537413  0.04644729    -0.83500
C76         C  0.59791342  0.93431935  0.06559703     0.97300
C77         C  0.60456295  0.94419835  0.44709454     1.04700
O78         O  0.54131877  0.87404703  0.50030275    -1.12500
O79         O  0.47213841  0.84474968  0.45696844    -0.74900
O80         O  0.50499738  0.90442533  0.45325848    -0.78400
O81         O  0.60907417  0.91620977  0.04639764    -0.79100
C82         C  0.47887526  0.87456691  0.44114415     0.96200
O83         O  0.49486014  0.89446267  0.04452664    -0.77100
O84         O  0.51398647  0.81088391  0.44649354    -0.82300
C85         C  0.54449376  0.81030345  0.05233029     0.98800
C86         C  0.54453061  0.81706352  0.43432551     1.04700
O87         O  0.57354817  0.83886833  0.04278593    -0.77900
C88         C  0.47357207  0.86378270  0.05971591     1.03000
Fe89       Fe  0.91771408  0.37516862  0.99319130     1.65800
Fe90       Fe  0.82639302  0.32049922  0.49989328     1.73200
Fe91       Fe  0.87977806  0.28336702  0.49993933     1.54400
O92         O  0.91170978  0.29906391  0.44786081    -0.81600
O93         O  0.81062526  0.28259422  0.04632979    -0.79900
O94         O  0.94594147  0.35790099  0.45879923    -0.84100
O95         O  0.94762023  0.36580506  0.03495485    -0.79000
O96         O  0.83475325  0.25374015  0.46121408    -0.80800
O97         O  0.84056620  0.35898268  0.04599965    -0.83500
C98         C  0.94671134  0.33932527  0.05295064     0.97300
C99         C  0.93965070  0.32919206  0.44071499     1.04700
O100        O  0.87401509  0.32546940  0.49818616    -1.12500
O101        O  0.84006134  0.36408743  0.46032139    -0.74900
O102        O  0.89677182  0.38378544  0.44190190    -0.78400
O103        O  0.92201003  0.30694626  0.04624937    -0.79100
C104        C  0.86709544  0.38277815  0.43709424     0.96200
O105        O  0.90008482  0.39418197  0.04098966    -0.77100
O106        O  0.80992919  0.28744278  0.44920862    -0.82300
C107        C  0.81828315  0.25975175  0.06010863     0.98800
C108        C  0.81261975  0.26008814  0.44170127     1.04700
O109        O  0.84452719  0.25751720  0.04627698    -0.77900
C110        C  0.87012120  0.38598255  0.05762073     1.03000
Fe111      Fe  0.61019291  0.06247687  0.25174516     1.65800
Fe112      Fe  0.66204444  0.15333741  0.24896198     1.73200
Fe113      Fe  0.70177110  0.10130591  0.24830788     1.54400
O114        O  0.68178335  0.05997553  0.29248128    -0.81600
O115        O  0.69668147  0.17062780  0.19973303    -0.79900
O116        O  0.62349707  0.04159904  0.30113998    -0.84100
O117        O  0.62379653  0.03477729  0.21141514    -0.79000
O118        O  0.72670681  0.13787113  0.29628232    -0.80800
O119        O  0.62081209  0.13760282  0.20611649    -0.83500
C120        C  0.65134170  0.03851619  0.19277786     0.97300
C121        C  0.65160344  0.04068393  0.31041509     1.04700
O122        O  0.65812319  0.10574041  0.24996130    -1.12500
O123        O  0.62738649  0.14321775  0.29820184    -0.74900
O124        O  0.58987270  0.08450643  0.29298710    -0.78400
O125        O  0.68278086  0.06442869  0.20007725    -0.79100
C126        C  0.59915031  0.11479849  0.30935264     0.96200
O127        O  0.59201257  0.07796184  0.20143861    -0.77100
O128        O  0.70382285  0.17384181  0.29126161    -0.82300
C129        C  0.72096706  0.16481394  0.18709825     0.98800
C130        C  0.72520343  0.16516920  0.30787716     1.04700
O131        O  0.72664150  0.14135046  0.20371934    -0.77900
C132        C  0.59754441  0.10822208  0.18924925     1.03000
Fe133      Fe  0.92063588  0.53887441  0.25078232     1.65800
Fe134      Fe  0.83001773  0.49911703  0.24915833     1.73200
Fe135      Fe  0.88195079  0.59050612  0.25006870     1.54400
O136        O  0.92524096  0.61172985  0.29223442    -0.81600
O137        O  0.81292612  0.51606358  0.19955954    -0.79900
O138        O  0.93862527  0.56864990  0.30387911    -0.84100
O139        O  0.95017158  0.58411943  0.21599412    -0.79000
O140        O  0.84658320  0.57722373  0.29947640    -0.80800
O141        O  0.84723413  0.47407770  0.20712352    -0.83500
C142        C  0.94451470  0.60546954  0.19477769     0.97300
C143        C  0.94216657  0.59905335  0.31178972     1.04700
O144        O  0.87735344  0.54290803  0.25018668    -1.12500
O145        O  0.84209214  0.47758555  0.29909797    -0.74900
O146        O  0.89838260  0.49227620  0.28581074    -0.78400
O147        O  0.91679497  0.60809568  0.19975647    -0.79100
C148        C  0.86907667  0.47391304  0.30519690     0.96200
O149        O  0.90610983  0.50964980  0.19696999    -0.77100
O150        O  0.80690869  0.51902046  0.29030032    -0.82300
C151        C  0.81701300  0.54637538  0.19017755     0.98800
C152        C  0.81688750  0.54890105  0.30826540     1.04700
O153        O  0.83994926  0.57532792  0.20815481    -0.77900
C154        C  0.87611600  0.48251322  0.18734096     1.03000
Fe155      Fe  0.44599564  0.06583049  0.99918528     1.65800
Fe156      Fe  0.48569822  0.15550537  0.50304761     1.73200
Fe157      Fe  0.39326612  0.10427908  0.50004521     1.54400
O158        O  0.37512482  0.06720990  0.45221202    -0.81600
O159        O  0.46762157  0.17507272  0.04806948    -0.79900
O160        O  0.40408428  0.03716288  0.46094451    -0.84100
O161        O  0.40580591  0.03972444  0.04107139    -0.79000
O162        O  0.40851618  0.14376763  0.45527422    -0.80800
O163        O  0.51191122  0.14307859  0.04544664    -0.83500
C164        C  0.38108586  0.04272076  0.05807455     0.97300
C165        C  0.38079237  0.04200371  0.44285591     1.04700
O166        O  0.44118953  0.10811685  0.50206943    -1.12500
O167        O  0.51135409  0.14053438  0.45892683    -0.74900
O168        O  0.48061585  0.08083194  0.45520145    -0.78400
O169        O  0.37444598  0.06727851  0.04857050    -0.79100
C170        C  0.50573343  0.11111370  0.44279501     0.96200
O171        O  0.48185096  0.08329925  0.04748489    -0.77100
O172        O  0.46848016  0.17466773  0.45500346    -0.82300
C173        C  0.43709046  0.16861621  0.06113175     0.98800
C174        C  0.43828283  0.16861932  0.44119752     1.04700
O175        O  0.40775397  0.14407597  0.04569378    -0.77900
C176        C  0.50647599  0.11357781  0.06060809     1.03000
Fe177      Fe  0.61452742  0.54044830  0.00352612     1.65800
Fe178      Fe  0.66619168  0.50613504  0.49899789     1.73200
Fe179      Fe  0.70512071  0.59833801  0.49997705     1.54400
O180        O  0.68523737  0.61653054  0.45326551    -0.81600
O181        O  0.70751451  0.52337105  0.04208578    -0.79900
O182        O  0.62584348  0.58573980  0.46226032    -0.84100
O183        O  0.62808017  0.57387632  0.05371104    -0.79000
O184        O  0.73224521  0.58624993  0.45468843    -0.80800
O185        O  0.63138913  0.47623482  0.04713321    -0.83500
C186        C  0.65667079  0.60192384  0.06521268     0.97300
C187        C  0.65386658  0.61073092  0.44537253     1.04700
O188        O  0.66168019  0.54929875  0.49976815    -1.12500
O189        O  0.62587128  0.47909396  0.45508634    -0.74900
O190        O  0.59702432  0.50950283  0.45001824    -0.78400
O191        O  0.68696628  0.61353147  0.04776977    -0.79100
C192        C  0.60250234  0.48459764  0.43802882     0.96200
O193        O  0.59483001  0.49806691  0.04388121    -0.77100
O194        O  0.70273405  0.52641765  0.45123631    -0.82300
C195        C  0.72997139  0.55360329  0.05765249     0.98800
C196        C  0.72745160  0.55710424  0.43888900     1.04700
O197        O  0.73248467  0.58280776  0.04575213    -0.77900
C198        C  0.60349766  0.47640969  0.05892597     1.03000
Fe199      Fe  0.44568638  0.37358202  0.24707231     1.65800
Fe200      Fe  0.48820132  0.32517448  0.25242315     1.73200
Fe201      Fe  0.39599293  0.28190087  0.25277485     1.54400
O202        O  0.37680640  0.29995245  0.30084489    -0.81600
O203        O  0.46923359  0.28131294  0.21324425    -0.79900
O204        O  0.40566693  0.35912863  0.29001931    -0.84100
O205        O  0.40915963  0.35773262  0.19994802    -0.79000
O206        O  0.41297199  0.25906439  0.29735846    -0.80800
O207        O  0.50880038  0.35761683  0.20085889    -0.83500
C208        C  0.38085149  0.32861855  0.19103645     0.97300
C209        C  0.38214629  0.33112869  0.30877973     1.04700
O210        O  0.44320966  0.32681724  0.25067807    -1.12500
O211        O  0.51407208  0.36871790  0.29182618    -0.74900
O212        O  0.48227927  0.39599514  0.29451757    -0.78400
O213        O  0.37211570  0.29881859  0.20846665    -0.79100
C214        C  0.50838281  0.39266146  0.30644471     0.96200
O215        O  0.48569733  0.39348416  0.20274657    -0.77100
O216        O  0.47247188  0.29265762  0.30414287    -0.82300
C217        C  0.43950852  0.25976019  0.19593143     0.98800
C218        C  0.44228707  0.26659968  0.31533985     1.04700
O219        O  0.41037663  0.25894223  0.20531430    -0.77900
C220        C  0.50643506  0.38389374  0.18698304     1.03000
Fe221      Fe  0.06462223  0.60960880  0.00557796     1.65800
Fe222      Fe  0.15629111  0.66212359  0.49853742     1.73200
Fe223      Fe  0.10387046  0.70127307  0.50141497     1.54400
O224        O  0.06402348  0.68013917  0.45640776    -0.81600
O225        O  0.17843876  0.70447093  0.04152559    -0.79900
O226        O  0.03605296  0.62059740  0.46572029    -0.84100
O227        O  0.04698844  0.62406611  0.05672781    -0.79000
O228        O  0.14088976  0.72710437  0.45465850    -0.80800
O229        O  0.14627047  0.62829028  0.05066339    -0.83500
C230        C  0.04689000  0.65251692  0.06597822     0.97300
C231        C  0.03898453  0.64833869  0.44816519     1.04700
O232        O  0.10844493  0.65763897  0.50239060    -1.12500
O233        O  0.13935872  0.62218934  0.45435106    -0.74900
O234        O  0.07990615  0.58706012  0.46128795    -0.78400
O235        O  0.06404098  0.68173239  0.04579841    -0.79100
C236        C  0.10953211  0.59454476  0.44461798     0.96200
O237        O  0.08775629  0.58988372  0.04537849    -0.77100
O238        O  0.17229278  0.69943765  0.45160592    -0.82300
C239        C  0.16976741  0.72608587  0.05673462     0.98800
C240        C  0.16561819  0.72335122  0.43903133     1.04700
O241        O  0.14157694  0.72642313  0.04561202    -0.77900
C242        C  0.11798934  0.60013981  0.06233096     1.03000
Fe243      Fe  0.37405207  0.92017627  0.24791317     1.65800
Fe244      Fe  0.32075439  0.82882733  0.24882773     1.73200
Fe245      Fe  0.28219266  0.88184727  0.25115259     1.54400
O246        O  0.30343593  0.92224561  0.29552540    -0.81600
O247        O  0.28224567  0.81108878  0.20285299    -0.79900
O248        O  0.36290016  0.94856612  0.29026158    -0.84100
O249        O  0.36032045  0.94201563  0.19970185    -0.79000
O250        O  0.25918765  0.84479954  0.29890115    -0.80800
O251        O  0.35899713  0.84158327  0.20357433    -0.83500
C252        C  0.33131525  0.93947420  0.18671616     0.97300
C253        C  0.33502270  0.94655762  0.30556277     1.04700
O254        O  0.32560947  0.87694845  0.24938259    -1.12500
O255        O  0.35876520  0.84097352  0.29494379    -0.74900
O256        O  0.39161469  0.90084992  0.29553501    -0.78400
O257        O  0.30074129  0.91927166  0.20322593    -0.79100
C258        C  0.38430863  0.87018144  0.30938591     0.96200
O259        O  0.39452092  0.90069451  0.20510700    -0.77100
O260        O  0.28233383  0.80912884  0.29421116    -0.82300
C261        C  0.25794869  0.81759100  0.19111318     0.98800
C262        C  0.26136883  0.81785768  0.31090020     1.04700
O263        O  0.25403266  0.84221845  0.20706335    -0.77900
C264        C  0.38652456  0.87024220  0.19133906     1.03000
C265        C  0.22076350  0.74816838  0.39693394    -0.12200
C266        C  0.18906142  0.74829443  0.40598350     0.04800
C267        C  0.18218862  0.77286806  0.38440689    -0.07500
C268        C  0.20646624  0.79569488  0.35426916    -0.08300
C269        C  0.23778698  0.79488358  0.34490750    -0.02800
C270        C  0.24487398  0.77086484  0.36712230     0.04000
N271        N  0.27717298  0.76989827  0.36171842     0.66500
H272        H  0.22752819  0.73063590  0.41349897     0.15400
H273        H  0.20027812  0.81360757  0.33760197     0.15100
N274        N  0.15060743  0.77487894  0.39146828     0.74200
O275        O  0.30204123  0.78610808  0.38796222    -0.39200
O276        O  0.27565585  0.74406750  0.34172299    -0.39200
O277        O  0.15359042  0.80121135  0.41176893    -0.39900
O278        O  0.12455699  0.75885266  0.36658687    -0.39900
C279        C  0.25039833  0.78573156  0.12537729    -0.12200
C280        C  0.23460248  0.79601682  0.15618708     0.04800
C281        C  0.19759179  0.78455575  0.15286159    -0.07500
C282        C  0.17728944  0.76247109  0.11971826    -0.08300
C283        C  0.19300894  0.75134966  0.08955163    -0.02800
C284        C  0.23024522  0.76376942  0.09241638     0.04000
N285        N  0.24875788  0.75555046  0.06170827     0.66500
H286        H  0.27874117  0.79488395  0.12672040     0.15400
H287        H  0.14891186  0.75310746  0.11840028     0.15100
N288        N  0.17935212  0.79297886  0.18371902     0.74200
O289        O  0.26551877  0.77842231  0.03363030    -0.39200
O290        O  0.25825894  0.73306354  0.07051128    -0.39200
O291        O  0.17028828  0.81583268  0.17512600    -0.39900
O292        O  0.16233800  0.77006751  0.21167891    -0.39900
C293        C  0.55717503  0.40867389  0.35807433    -0.12200
C294        C  0.53310240  0.41718561  0.33894639     0.04800
C295        C  0.53353199  0.44874636  0.35147770    -0.07500
C296        C  0.55656313  0.47000228  0.38324095    -0.08300
C297        C  0.58013675  0.46119108  0.40313483    -0.02800
C298        C  0.58070937  0.43030865  0.38946416     0.04000
N299        N  0.60475811  0.41998089  0.40646890     0.66500
H300        H  0.55777600  0.38513018  0.34898180     0.15400
H301        H  0.55589867  0.49357275  0.39201330     0.15100
N302        N  0.51179713  0.46080201  0.33185140     0.74200
O303        O  0.59264839  0.39461193  0.43246412    -0.39200
O304        O  0.63242325  0.42688669  0.38595310    -0.39200
O305        O  0.48406181  0.45624663  0.35039639    -0.39900
O306        O  0.52610357  0.48526868  0.30483124    -0.39900
C307        C  0.54433136  0.44589810  0.09386089    -0.12200
C308        C  0.57896007  0.45051075  0.09064649     0.04800
C309        C  0.58836486  0.43079297  0.11784422    -0.07500
C310        C  0.56379446  0.40831933  0.14801003    -0.08300
C311        C  0.52985477  0.40509729  0.15206557    -0.02800
C312        C  0.51998653  0.42367493  0.12392126     0.04000
N313        N  0.48510772  0.41992137  0.12436745     0.66500
H314        H  0.53579900  0.45965778  0.07295352     0.15400
H315        H  0.57183214  0.39430791  0.16916515     0.15100
N316        N  0.62289445  0.43384713  0.11674219     0.74200
O317        O  0.48145561  0.44416685  0.14135830    -0.39200
O318        O  0.46241521  0.40016509  0.09739152    -0.39200
O319        O  0.64559685  0.45227512  0.14437265    -0.39900
O320        O  0.62591329  0.40974197  0.09838409    -0.39900
C321        C  0.32757585  0.95838215  0.37823433    -0.12200
C322        C  0.34011464  0.97220908  0.33859691     0.04800
C323        C  0.36158707  0.00984958  0.33316905    -0.07500
C324        C  0.37145943  0.03259645  0.36765950    -0.08300
C325        C  0.36154468  0.01838296  0.40767269    -0.02800
C326        C  0.33873449  0.98101244  0.41282381     0.04000
N327        N  0.32811601  0.96524003  0.45302045     0.66500
H328        H  0.31135605  0.92964931  0.38279520     0.15400
H329        H  0.38923320  0.06117878  0.36345765     0.15100
N330        N  0.37493152  0.02551500  0.29336529     0.74200
O331        O  0.29701905  0.95620492  0.46576797    -0.39200
O332        O  0.34431463  0.95064873  0.46897808    -0.39200
O333        O  0.36021310  0.04052911  0.27484650    -0.39900
O334        O  0.40675460  0.03440568  0.28385664    -0.39900
C335        C  0.35252693  0.98011816  0.08043458    -0.12200
C336        C  0.35933946  0.01489306  0.08894401     0.04800
C337        C  0.34993426  0.02213393  0.12810367    -0.07500
C338        C  0.33753540  0.99563757  0.15912853    -0.08300
C339        C  0.33424123  0.96213962  0.15138035    -0.02800
C340        C  0.34049122  0.95396519  0.11125581     0.04000
N341        N  0.33668086  0.91995968  0.10145873     0.66500
H342        H  0.35870517  0.97386049  0.05050905     0.15400
H343        H  0.33287997  0.00202807  0.18981191     0.15100
N344        N  0.35520810  0.05663961  0.13828568     0.74200
O345        O  0.30836342  0.89687311  0.08325137    -0.39200
O346        O  0.36465569  0.91773195  0.09842611    -0.39200
O347        O  0.32798170  0.06021982  0.14045924    -0.39900
O348        O  0.38348004  0.07868075  0.15739910    -0.39900
C349        C  0.46709459  0.20910589  0.12099520    -0.12200
C350        C  0.43623144  0.19059912  0.09620333     0.04800
C351        C  0.40609384  0.19408697  0.10560513    -0.07500
C352        C  0.40774473  0.21606837  0.13850487    -0.08300
C353        C  0.43890600  0.23517680  0.16286824    -0.02800
C354        C  0.46879433  0.23099231  0.15387571     0.04000
N355        N  0.50130942  0.24830751  0.17755462     0.66500
H356        H  0.49037747  0.20669276  0.11495526     0.15400
H357        H  0.38455660  0.21871187  0.14427249     0.15100
N358        N  0.37396445  0.17705683  0.08127508     0.74200
O359        O  0.50614792  0.23031430  0.20505056    -0.39200
O360        O  0.52845269  0.27527930  0.16207685    -0.39200
O361        O  0.34667818  0.14967304  0.09585085    -0.39900
O362        O  0.36948727  0.19537290  0.05390200    -0.39900
C363        C  0.41232044  0.20698097  0.34970026    -0.12200
C364        C  0.44101514  0.24270414  0.34926221     0.04800
C365        C  0.46830663  0.25362509  0.37968191    -0.07500
C366        C  0.46664230  0.22883952  0.40887030    -0.08300
C367        C  0.43830250  0.19300085  0.40880366    -0.02800
C368        C  0.41079136  0.18215625  0.37878472     0.04000
N369        N  0.38211617  0.14574572  0.37546935     0.66500
H370        H  0.39141209  0.19776629  0.32644777     0.15400
H371        H  0.48759406  0.23792036  0.43204333     0.15100
N372        N  0.49766926  0.28976963  0.38235771     0.74200
O373        O  0.35158886  0.13756166  0.38943039    -0.39200
O374        O  0.38404884  0.12611109  0.34789085    -0.39200
O375        O  0.49697632  0.30991076  0.41018058    -0.39900
O376        O  0.52766460  0.29706049  0.36750112    -0.39900
C377        C  0.95256365  0.61000275  0.38647160    -0.12200
C378        C  0.96622923  0.61937335  0.34625190     0.04800
C379        C  0.00354217  0.64267769  0.34048859    -0.07500
C380        C  0.02663767  0.65455150  0.37487938    -0.08300
C381        C  0.01321273  0.64270508  0.41486377    -0.02800
C382        C  0.97568637  0.62135968  0.42074846     0.04000
N383        N  0.96044054  0.61055344  0.46114213     0.66500
H384        H  0.92407664  0.59223241  0.39114414     0.15400
H385        H  0.05529434  0.67076546  0.37000138     0.15100
N386        N  0.01895383  0.65240167  0.30004349     0.74200
O387        O  0.94806143  0.62815714  0.47850073    -0.39200
O388        O  0.94929439  0.57867067  0.47270608    -0.39200
O389        O  0.02899456  0.68360903  0.28676841    -0.39900
O390        O  0.03266316  0.63528636  0.28456638    -0.39900
C391        C  0.99030703  0.64568683  0.09221946    -0.12200
C392        C  0.02433840  0.65043168  0.10078338     0.04800
C393        C  0.03330932  0.64647842  0.14153366    -0.07500
C394        C  0.00752167  0.63563854  0.17260533    -0.08300
C395        C  0.97212540  0.62704762  0.16352565    -0.02800
C396        C  0.96392874  0.63366488  0.12321260     0.04000
N397        N  0.92839086  0.62491594  0.11174422     0.66500
H398        H  0.98329642  0.64837242  0.06094052     0.15400
H399        H  0.01447310  0.63128950  0.20316030     0.15100
N400        N  0.06757711  0.65082934  0.15165014     0.74200
O401        O  0.92160846  0.65001910  0.10858123    -0.39200
O402        O  0.90859676  0.59583077  0.09276198    -0.39200
O403        O  0.09020745  0.67887047  0.17059962    -0.39900
O404        O  0.07062014  0.62328748  0.15349424    -0.39900
C405        C  0.80638203  0.58079457  0.13576105    -0.12200
C406        C  0.79433720  0.54814113  0.15678878     0.04800
C407        C  0.76096906  0.51805033  0.14523612    -0.07500
C408        C  0.74088376  0.52109790  0.11330855    -0.08300
C409        C  0.75298072  0.55353234  0.09182955    -0.02800
C410        C  0.78618941  0.58377613  0.10353354     0.04000
N411        N  0.80077779  0.61746880  0.08258571     0.66500
H412        H  0.83186536  0.60401881  0.14378646     0.15400
H413        H  0.71541897  0.49771494  0.10559826     0.15100
N414        N  0.74614240  0.48416836  0.16590599     0.74200
O415        O  0.79784531  0.64220260  0.09942666    -0.39200
O416        O  0.82568505  0.62586302  0.05667319    -0.39200
O417        O  0.72145286  0.47587790  0.19209182    -0.39900
O418        O  0.74870229  0.45933863  0.14871372    -0.39900
C419        C  0.80728698  0.58198151  0.36603605    -0.12200
C420        C  0.79323903  0.55113458  0.34076110     0.04800
C421        C  0.75706590  0.52367287  0.34732040    -0.07500
C422        C  0.73655170  0.52722842  0.37846995    -0.08300
C423        C  0.75077211  0.55753578  0.40438558    -0.02800
C424        C  0.78669728  0.58533677  0.39761143     0.04000
N425        N  0.80381844  0.61644371  0.42344785     0.66500
H426        H  0.83460115  0.60330968  0.36209016     0.15400
H427        H  0.70923380  0.50579807  0.38239263     0.15100
N428        N  0.73994191  0.49172871  0.32285324     0.74200
O429        O  0.82358262  0.61702627  0.45275359    -0.39200
O430        O  0.80900669  0.64591232  0.40906963    -0.39200
O431        O  0.73548534  0.46295577  0.33859523    -0.39900
O432        O  0.71931611  0.48976288  0.29382569    -0.39900
C433        C  0.55027371  0.08275290  0.36043428    -0.12200
C434        C  0.57596527  0.11577890  0.34316235     0.04800
C435        C  0.57788999  0.14745172  0.35862891    -0.07500
C436        C  0.55494675  0.14526760  0.39093751    -0.08300
C437        C  0.52936535  0.11202524  0.40827136    -0.02800
C438        C  0.52712484  0.08048922  0.39197364     0.04000
N439        N  0.50182512  0.04538989  0.40677199     0.66500
H440        H  0.54791654  0.05816272  0.34966193     0.15400
H441        H  0.55701848  0.16963866  0.40201736     0.15100
N442        N  0.60181580  0.18211500  0.34155489     0.74200
O443        O  0.47396774  0.02616204  0.38537782    -0.39200
O444        O  0.51286231  0.03016961  0.43121293    -0.39200
O445        O  0.58918177  0.19559818  0.31672061    -0.39900
O446        O  0.63024023  0.20292446  0.36123763    -0.39900
C447        C  0.56966794  0.13886180  0.15355570    -0.12200
C448        C  0.57524045  0.10954298  0.15508068     0.04800
C449        C  0.55838802  0.08212636  0.12496499    -0.07500
C450        C  0.53639033  0.08446363  0.09474429    -0.08300
C451        C  0.53041386  0.11354246  0.09357345    -0.02800
C452        C  0.54743202  0.14102799  0.12343136     0.04000
N453        N  0.54095920  0.17027082  0.12576172     0.66500
H454        H  0.58166484  0.15970288  0.17653769     0.15400
H455        H  0.52425472  0.06352711  0.07186656     0.15100
N456        N  0.56381158  0.05212403  0.12331144     0.74200
O457        O  0.51766024  0.16802205  0.15109172    -0.39200
O458        O  0.56555016  0.20102361  0.11442192    -0.39200
O459        O  0.53887987  0.02191887  0.13567968    -0.39900
O460        O  0.58648957  0.05308008  0.09792139    -0.39900
C461        C  0.73830921  0.21123869  0.36116487    -0.12200
C462        C  0.74809363  0.18796866  0.34283542     0.04800
C463        C  0.77870534  0.18777910  0.35860749    -0.07500
C464        C  0.79888043  0.21108545  0.39107283    -0.08300
C465        C  0.78938821  0.23491113  0.40858201    -0.02800
C466        C  0.75829098  0.23438480  0.39335398     0.04000
N467        N  0.74555026  0.25645212  0.41020862     0.66500
H468        H  0.71486029  0.21159846  0.35079832     0.15400
H469        H  0.82224788  0.21086384  0.40195420     0.15100
N470        N  0.79066073  0.16499406  0.34206283     0.74200
O471        O  0.75225316  0.28459966  0.39079514    -0.39200
O472        O  0.71859934  0.24205880  0.43394236    -0.39200
O473        O  0.81769309  0.17869473  0.31843983    -0.39900
O474        O  0.78303753  0.13661614  0.36155180    -0.39900
C475        C  0.77760535  0.18904068  0.14654986    -0.12200
C476        C  0.74449060  0.18725797  0.15263533     0.04800
C477        C  0.73577212  0.20841426  0.12696924    -0.07500
C478        C  0.76043180  0.23147653  0.09766216    -0.08300
C479        C  0.79406809  0.23423032  0.09232080    -0.02800
C480        C  0.80225634  0.21204166  0.11680029     0.04000
N481        N  0.83555006  0.21268979  0.11312817     0.66500
H482        H  0.78492014  0.17322087  0.16550406     0.15400
H483        H  0.75272788  0.24700384  0.07871300     0.15100
N484        N  0.70180588  0.20665688  0.12897094     0.74200
O485        O  0.86034152  0.23120792  0.13870555    -0.39200
O486        O  0.83554347  0.18671073  0.09527707    -0.39200
O487        O  0.70049561  0.23245039  0.14544379    -0.39900
O488        O  0.67778802  0.18717849  0.10303722    -0.39900
C489        C  0.88433862  0.40780008  0.36679778    -0.12200
C490        C  0.86456664  0.40399589  0.40278349     0.04800
C491        C  0.84497351  0.42200070  0.40544268    -0.07500
C492        C  0.84587931  0.44354742  0.37248946    -0.08300
C493        C  0.86667644  0.44829634  0.33711426    -0.02800
C494        C  0.88570627  0.42971850  0.33419472     0.04000
N495        N  0.90619580  0.43207748  0.29836881     0.66500
H496        H  0.89913898  0.39391763  0.36402200     0.15400
H497        H  0.83153393  0.45786994  0.37545513     0.15100
N498        N  0.82626848  0.42121957  0.44223726     0.74200
O499        O  0.93989668  0.45266444  0.29952649    -0.39200
O500        O  0.89307080  0.40616450  0.27314152    -0.39200
O501        O  0.84113411  0.44767882  0.46663904    -0.39900
O502        O  0.79246290  0.40145711  0.44295586    -0.39900
C503        C  0.90039051  0.44490403  0.09362466    -0.12200
C504        C  0.87033059  0.41001633  0.09088963     0.04800
C505        C  0.84187295  0.39992715  0.11938983    -0.07500
C506        C  0.84435626  0.42423028  0.14978136    -0.08300
C507        C  0.87465842  0.45891267  0.15286106    -0.02800
C508        C  0.90284213  0.46924429  0.12383052     0.04000
N509        N  0.93402634  0.50442924  0.12337293     0.66500
H510        H  0.92218971  0.45373366  0.07191976     0.15400
H511        H  0.82257692  0.41547460  0.17148355     0.15100
N512        N  0.81049885  0.36494680  0.11926637     0.74200
O513        O  0.96291837  0.50867667  0.13863692    -0.39200
O514        O  0.93579229  0.52665210  0.09660392    -0.39200
O515        O  0.80798087  0.34252136  0.14619712    -0.39900
O516        O  0.78204263  0.36112466  0.10319403    -0.39900
C517        C  0.62443324  0.95710234  0.37416638    -0.12200
C518        C  0.62531871  0.97037161  0.41406718     0.04800
C519        C  0.64041250  0.00780153  0.41955251    -0.07500
C520        C  0.65241336  0.03082161  0.38517099    -0.08300
C521        C  0.64858820  0.01711394  0.34505253    -0.02800
C522        C  0.63507768  0.98000622  0.33959464     0.04000
N523        N  0.62894386  0.96438816  0.29924222     0.66500
H524        H  0.61254021  0.92874338  0.36939424     0.15400
H525        H  0.66219974  0.05890463  0.38955553     0.15100
N526        N  0.64234775  0.02306255  0.45938934     0.74200
O527        O  0.65090370  0.95588073  0.28526858    -0.39200
O528        O  0.59746600  0.94920570  0.28448599    -0.39200
O529        O  0.67244266  0.03949038  0.47753395    -0.39900
O530        O  0.61842073  0.03031135  0.46915951    -0.39900
C531        C  0.64923403  0.98981599  0.09358085    -0.12200
C532        C  0.61812165  0.95654490  0.10113486     0.04800
C533        C  0.60264390  0.94898531  0.14081119    -0.07500
C534        C  0.61634256  0.97557845  0.17108652    -0.08300
C535        C  0.64501667  0.01026108  0.16248421    -0.02800
C536        C  0.66295521  0.01679782  0.12403364     0.04000
N537        N  0.69310160  0.05108249  0.11376623     0.66500
H538        H  0.66112049  0.99580613  0.06321265     0.15400
H539        H  0.60305256  0.96962639  0.20062610     0.15100
N540        N  0.57162792  0.91516638  0.15051106     0.74200
O541        O  0.72416767  0.05511246  0.11579833    -0.39200
O542        O  0.68817251  0.07191442  0.09078623    -0.39200
O543        O  0.57571672  0.89298613  0.17192270    -0.39900
O544        O  0.54123051  0.91273263  0.15010124    -0.39900
C545        C  0.43095078  0.90229771  0.36278569    -0.12200
C546        C  0.40714124  0.86944019  0.34364900     0.04800
C547        C  0.40730082  0.83820221  0.35706627    -0.07500
C548        C  0.43087549  0.84078068  0.38868541    -0.08300
C549        C  0.45493130  0.87387688  0.40739973    -0.02800
C550        C  0.45476783  0.90490994  0.39374458     0.04000
N551        N  0.47815606  0.93964508  0.41078764     0.66500
H552        H  0.43151863  0.92659111  0.35367304     0.15400
H553        H  0.43056337  0.81667865  0.39808319     0.15100
N554        N  0.38493127  0.80370471  0.33869441     0.74200
O555        O  0.50584334  0.96118811  0.39051638    -0.39200
O556        O  0.46526183  0.95221273  0.43629150    -0.39200
O557        O  0.39874989  0.79276814  0.31233451    -0.39900
O558        O  0.35799767  0.78061871  0.35880735    -0.39900
C559        C  0.39717971  0.83593264  0.13718766    -0.12200
C560        C  0.40999380  0.86806783  0.15954410     0.04800
C561        C  0.44477452  0.89720909  0.15060272    -0.07500
C562        C  0.46447496  0.89442414  0.11832272    -0.08300
C563        C  0.45130758  0.86279204  0.09501918    -0.02800
C564        C  0.41756882  0.83289289  0.10548746     0.04000
N565        N  0.40265076  0.79956041  0.08383194     0.66500
H566        H  0.37103182  0.81316412  0.14374916     0.15400
H567        H  0.49040460  0.91746578  0.11157850     0.15100
N568        N  0.46137651  0.92978531  0.17408413     0.74200
O569        O  0.40487058  0.77423426  0.10038170    -0.39200
O570        O  0.37794669  0.79198742  0.05772311    -0.39200
O571        O  0.48499812  0.93446737  0.20056800    -0.39900
O572        O  0.46178417  0.95701028  0.15907177    -0.39900
C573        C  0.13493892  0.58588900  0.37997915    -0.12200
C574        C  0.10964190  0.57054993  0.41200129     0.04800
C575        C  0.08569631  0.53296681  0.41203662    -0.07500
C576        C  0.08696602  0.51191761  0.37997094    -0.08300
C577        C  0.11186943  0.52727318  0.34756000    -0.02800
C578        C  0.13625376  0.56482972  0.34789149     0.04000
N579        N  0.16138208  0.58276209  0.31515785     0.66500
H580        H  0.15327725  0.61446550  0.37924914     0.15400
H581        H  0.06861339  0.48334936  0.38079228     0.15100
N582        N  0.06094771  0.51505985  0.44510194     0.74200
O583        O  0.15322858  0.59782444  0.28708027    -0.39200
O584        O  0.19421189  0.59379343  0.32189956    -0.39200
O585        O  0.02796727  0.50352544  0.43876343    -0.39900
O586        O  0.06973344  0.50065932  0.47334286    -0.39900
C587        C  0.08576675  0.55455079  0.11671869    -0.12200
C588        C  0.11874042  0.57814547  0.09753531     0.04800
C589        C  0.15011489  0.57908902  0.11229230    -0.07500
C590        C  0.14772845  0.55614459  0.14458334    -0.08300
C591        C  0.11453963  0.53194244  0.16296276    -0.02800
C592        C  0.08327072  0.53159753  0.14869187     0.04000
N593        N  0.04825592  0.50770148  0.16504221     0.66500
H594        H  0.06148681  0.55351884  0.10682115     0.15400
H595        H  0.17189434  0.55713838  0.15481610     0.15100
N596        N  0.18462374  0.60194523  0.09437086     0.74200
O597        O  0.03510132  0.51982504  0.19080235    -0.39200
O598        O  0.02714116  0.48007503  0.14438511    -0.39200
O599        O  0.20700068  0.62953302  0.11421333    -0.39900
O600        O  0.19622969  0.58868530  0.06810222    -0.39900
C601        C  0.02418865  0.35526114  0.37921694    -0.12200
C602        C  0.01130977  0.35426106  0.33914175     0.04800
C603        C  0.97381118  0.33886315  0.33302516    -0.07500
C604        C  0.95056251  0.32730002  0.36692599    -0.08300
C605        C  0.96397149  0.33211842  0.40717576    -0.02800
C606        C  0.00094233  0.34478040  0.41328158     0.04000
N607        N  0.01599909  0.34894186  0.45365633     0.66500
H608        H  0.05266236  0.36691463  0.38451006     0.15400
H609        H  0.92225706  0.31708774  0.36183495     0.15100
N610        N  0.95824662  0.33439153  0.29289490     0.74200
O611        O  0.02109882  0.32448308  0.46736715    -0.39200
O612        O  0.03549358  0.38040560  0.46724330    -0.39200
O613        O  0.93849048  0.30259592  0.28027392    -0.39900
O614        O  0.95209691  0.35829065  0.27962206    -0.39900
C615        C  0.96867155  0.32291835  0.11599147    -0.12200
C616        C  0.97524446  0.34745900  0.08386762     0.04800
C617        C  0.00807873  0.38078888  0.08400091    -0.07500
C618        C  0.03103176  0.39049187  0.11798065    -0.08300
C619        C  0.02263438  0.36757031  0.15194637    -0.02800
C620        C  0.99235481  0.33261023  0.14981333     0.04000
N621        N  0.98314623  0.30743384  0.18271774     0.66500
H622        H  0.94442076  0.29716361  0.11611396     0.15400
H623        H  0.05472028  0.41673286  0.11859738     0.15100
N624        N  0.01906316  0.40568512  0.05033747     0.74200
O625        O  0.95675464  0.30124399  0.20508829    -0.39200
O626        O  0.99095507  0.28310598  0.17894889    -0.39200
O627        O  0.01502025  0.43253262  0.05369387    -0.39900
O628        O  0.04354506  0.40821785  0.02683451    -0.39900
C629        C  0.33727491  0.33308310  0.40976933    -0.12200
C630        C  0.33231663  0.36219911  0.40137251     0.04800
C631        C  0.33827032  0.37638930  0.36101044    -0.07500
C632        C  0.35168189  0.36336046  0.33066806    -0.08300
C633        C  0.36012094  0.33663272  0.33982253    -0.02800
C634        C  0.35113484  0.32014494  0.37930883     0.04000
N635        N  0.35890993  0.29283402  0.39073910     0.66500
H636        H  0.33314232  0.32237607  0.44059069     0.15400
H637        H  0.35746469  0.37565250  0.30068104     0.15100
N638        N  0.33295684  0.40553758  0.35054826     0.74200
O639        O  0.38783597  0.30184084  0.40989516    -0.39200
O640        O  0.33312867  0.26089572  0.39395508    -0.39200
O641        O  0.36003769  0.43682319  0.34827779    -0.39900
O642        O  0.30456547  0.39873240  0.33152033    -0.39900
C643        C  0.32263568  0.35471931  0.13028102    -0.12200
C644        C  0.33338198  0.35284193  0.08992464     0.04800
C645        C  0.35433912  0.33665431  0.08323304    -0.07500
C646        C  0.36646488  0.32528055  0.11703388    -0.08300
C647        C  0.35856100  0.33029455  0.15758180    -0.02800
C648        C  0.33566613  0.34432557  0.16419383     0.04000
N649        N  0.32767704  0.35106498  0.20496460     0.66500
H650        H  0.30685991  0.36727149  0.13579905     0.15400
H651        H  0.38421945  0.31491977  0.11168013     0.15100
N652        N  0.36470481  0.33259676  0.04252595     0.74200
O653        O  0.34566167  0.38251410  0.21934536    -0.39200
O654        O  0.29691455  0.33003953  0.21978224    -0.39200
O655        O  0.39625804  0.35439782  0.03040764    -0.39900
O656        O  0.34742101  0.30223941  0.02527914    -0.39900
C657        C  0.19995377  0.45858571  0.37956549    -0.12200
C658        C  0.18835801  0.43288033  0.34760653     0.04800
C659        C  0.19906273  0.40678338  0.34908976    -0.07500
C660        C  0.22100850  0.40722930  0.38131261    -0.08300
C661        C  0.23295227  0.43319300  0.41246570    -0.02800
C662        C  0.22187327  0.45885198  0.41190473     0.04000
N663        N  0.23245370  0.48503130  0.44419852     0.66500
H664        H  0.19172779  0.47862440  0.37960884     0.15400
H665        H  0.22965092  0.38769865  0.38111907     0.15100
N666        N  0.19000875  0.38074425  0.31715842     0.74200
O667        O  0.25984926  0.51576777  0.43909286    -0.39200
O668        O  0.22006315  0.47503166  0.48029595    -0.39200
O669        O  0.21371811  0.38635374  0.29056803    -0.39900
O670        O  0.16580278  0.34872636  0.32450267    -0.39900
C671        C  0.23127743  0.46097846  0.10173198    -0.12200
C672        C  0.23389941  0.42998713  0.09721285     0.04800
C673        C  0.21329839  0.40054017  0.12394778    -0.07500
C674        C  0.19105692  0.40271108  0.15409896    -0.08300
C675        C  0.18889109  0.43387912  0.15880974    -0.02800
C676        C  0.20932851  0.46326294  0.13196636     0.04000
N677        N  0.20750284  0.49537922  0.13347795     0.66500
H678        H  0.24596293  0.48357866  0.08140455     0.15400
H679        H  0.17616387  0.38025013  0.17449961     0.15100
N680        N  0.21534457  0.36859657  0.12256477     0.74200
O681        O  0.23311223  0.52292002  0.15024989    -0.39200
O682        O  0.18820183  0.49949436  0.10708188    -0.39200
O683        O  0.23439582  0.36450024  0.14932894    -0.39900
O684        O  0.19009664  0.34110796  0.10529593    -0.39900
C685        C  0.61393860  0.65656034  0.38384528    -0.12200
C686        C  0.62478656  0.65358753  0.34400282     0.04800
C687        C  0.65004384  0.64241663  0.33883278    -0.07500
C688        C  0.66243623  0.63224495  0.37343060    -0.08300
C689        C  0.64881327  0.63173609  0.41292801    -0.02800
C690        C  0.62551087  0.64544940  0.41833699     0.04000
N691        N  0.61226454  0.64728092  0.45824570     0.66500
H692        H  0.59468306  0.66506367  0.38789596     0.15400
H693        H  0.67998973  0.62170658  0.36892235     0.15100
N694        N  0.66125257  0.63831991  0.29863838     0.74200
O695        O  0.62707503  0.67709869  0.47685782    -0.39200
O696        O  0.58048297  0.62385330  0.46787818    -0.39200
O697        O  0.69227458  0.66149933  0.28630976    -0.39900
O698        O  0.64588038  0.60747812  0.28239624    -0.39900
C699        C  0.64577882  0.63348426  0.16993859    -0.12200
C700        C  0.62578521  0.64958537  0.15849037     0.04800
C701        C  0.62176017  0.65513010  0.11633434    -0.07500
C702        C  0.63523879  0.64190519  0.08622839    -0.08300
C703        C  0.65279869  0.62334877  0.09762241    -0.02800
C704        C  0.65954807  0.62052033  0.13976298     0.04000
N705        N  0.67844392  0.60298268  0.15286985     0.66500
H706        H  0.64902430  0.62934028  0.20198927     0.15400
H707        H  0.62984297  0.64386388  0.05430586     0.15100
N708        N  0.60110468  0.67078888  0.10316122     0.74200
O709        O  0.71123297  0.62210780  0.16257887    -0.39200
O710        O  0.66070235  0.57140786  0.16701881    -0.39200
O711        O  0.61745144  0.70255954  0.08943245    -0.39900
O712        O  0.56854882  0.65031695  0.09329290    -0.39900
C713        C  0.43898978  0.52599302  0.10129605    -0.12200
C714        C  0.40754067  0.52674906  0.09207020     0.04800
C715        C  0.40165615  0.55210880  0.11306157    -0.07500
C716        C  0.42585570  0.57418564  0.14373674    -0.08300
C717        C  0.45683334  0.57272655  0.15367316    -0.02800
C718        C  0.46374263  0.54882819  0.13090314     0.04000
N719        N  0.49624728  0.54796778  0.13567116     0.66500
H720        H  0.44508820  0.50800638  0.08477575     0.15400
H721        H  0.42011392  0.59257349  0.15987736     0.15100
N722        N  0.37167015  0.55647274  0.10393852     0.74200
O723        O  0.49536815  0.52274661  0.15648096    -0.39200
O724        O  0.52055124  0.56356815  0.10872821    -0.39200
O725        O  0.34587307  0.54421821  0.12929013    -0.39900
O726        O  0.37658314  0.58190104  0.08027537    -0.39900
C727        C  0.41963059  0.57044692  0.34677264    -0.12200
C728        C  0.45449100  0.57571577  0.34364441     0.04800
C729        C  0.46505481  0.55790774  0.37222668    -0.07500
C730        C  0.44125736  0.53586766  0.40291174    -0.08300
C731        C  0.40628717  0.53026036  0.40614727    -0.02800
C732        C  0.39538992  0.54762050  0.37716116     0.04000
N733        N  0.35954309  0.54135425  0.37629769     0.66500
H734        H  0.41073978  0.58307490  0.32483048     0.15400
H735        H  0.45055068  0.52327847  0.42440184     0.15100
N736        N  0.50013896  0.56218602  0.37164776     0.74200
O737        O  0.35368264  0.56470225  0.39178047    -0.39200
O738        O  0.33795530  0.52013863  0.34935827    -0.39200
O739        O  0.52276325  0.58220578  0.39852198    -0.39900
O740        O  0.50400527  0.53794745  0.35499698    -0.39900
C741        C  0.52170901  0.72933615  0.12121602    -0.12200
C742        C  0.54907580  0.74491067  0.15115286     0.04800
C743        C  0.57570784  0.78158219  0.14705840    -0.07500
C744        C  0.57385250  0.80190335  0.11424894    -0.08300
C745        C  0.54591088  0.78657310  0.08485791    -0.02800
C746        C  0.51994018  0.74958547  0.08829998     0.04000
N747        N  0.49207706  0.73139304  0.05824912     0.66500
H748        H  0.50170963  0.70130371  0.12313137     0.15400
H749        H  0.59378212  0.82996213  0.11259607     0.15100
N750        N  0.60383974  0.79957401  0.17687671     0.74200
O751        O  0.49683077  0.71428046  0.02972584    -0.39200
O752        O  0.46031252  0.72259460  0.06792850    -0.39200
O753        O  0.63541122  0.80784211  0.16695677    -0.39900
O754        O  0.59959617  0.81691298  0.20554423    -0.39900
C755        C  0.51926020  0.75405151  0.34107899    -0.12200
C756        C  0.54988543  0.75070713  0.33713521     0.04800
C757        C  0.57974542  0.77192221  0.36327431    -0.07500
C758        C  0.57752284  0.79380233  0.39378921    -0.08300
C759        C  0.54630771  0.79592392  0.39882262    -0.02800
C760        C  0.51731324  0.77645580  0.37098995     0.04000
N761        N  0.48598864  0.77976258  0.37112879     0.66500
H762        H  0.49666178  0.73951241  0.32062085     0.15400
H763        H  0.60018064  0.80857488  0.41409855     0.15100
N764        N  0.61255933  0.77152209  0.36032470     0.74200
O765        O  0.48433406  0.80112706  0.34565375    -0.39200
O766        O  0.45706083  0.75417429  0.38544501    -0.39200
O767        O  0.63926179  0.79786759  0.34329389    -0.39900
O768        O  0.61805226  0.75245280  0.38561639    -0.39900
Fe769      Fe  0.53982820  0.61080871  0.75532428     1.65800
Fe770      Fe  0.49860210  0.66019376  0.75091727     1.73200
Fe771      Fe  0.59118508  0.70295791  0.75168763     1.54400
O772        O  0.61281559  0.68502738  0.79697781    -0.81600
O773        O  0.51749202  0.69769614  0.70345938    -0.79900
O774        O  0.57573948  0.62586725  0.80315639    -0.84100
O775        O  0.57949816  0.62534962  0.71271273    -0.79000
O776        O  0.57722719  0.72625421  0.79852174    -0.80800
O777        O  0.47497487  0.62034548  0.70599965    -0.83500
C778        C  0.60363498  0.65342997  0.69492796     0.97300
C779        C  0.60330262  0.65497493  0.81398887     1.04700
O780        O  0.54319874  0.65808951  0.75277061    -1.12500
O781        O  0.47370283  0.62289096  0.79861272    -0.74900
O782        O  0.49975570  0.58981639  0.79900386    -0.78400
O783        O  0.61031269  0.68475621  0.70424479    -0.79100
C784        C  0.47686093  0.59713232  0.81293829     0.96200
O785        O  0.50374399  0.58978756  0.70701505    -0.77100
O786        O  0.51738834  0.70049498  0.79486439    -0.82300
C787        C  0.54797538  0.72256656  0.69071140     0.98800
C788        C  0.54774808  0.72329537  0.81024188     1.04700
O789        O  0.57724843  0.72792468  0.70647084    -0.77900
C790        C  0.48016192  0.59579974  0.69197682     1.03000
Fe791      Fe  0.37195203  0.44336458  0.49822292     1.65800
Fe792      Fe  0.31737913  0.47895274  0.00122615     1.73200
Fe793      Fe  0.27734831  0.38656877  0.00273363     1.54400
O794        O  0.29653037  0.36672933  0.95670206    -0.81600
O795        O  0.28557986  0.46389951  0.55072132    -0.79900
O796        O  0.35510884  0.40699451  0.94996069    -0.84100
O797        O  0.35849860  0.40107564  0.53834373    -0.79000
O798        O  0.25227320  0.39866993  0.95604418    -0.80800
O799        O  0.36235627  0.50885058  0.54509974    -0.83500
C800        C  0.33012005  0.37671241  0.55552634     0.97300
C801        C  0.32657478  0.37914181  0.93825240     1.04700
O802        O  0.32105533  0.43519011  0.00148706    -1.12500
O803        O  0.35114117  0.50193653  0.95057252    -0.74900
O804        O  0.38923917  0.48219698  0.95796602    -0.78400
O805        O  0.29900568  0.37147697  0.54714242    -0.79100
C806        C  0.37935108  0.50188034  0.93991277     0.96200
O807        O  0.39080229  0.47797439  0.54843059    -0.77100
O808        O  0.27559561  0.45785967  0.95995704    -0.82300
C809        C  0.25984814  0.43332370  0.56183532     0.98800
C810        C  0.25356183  0.42745498  0.94480292     1.04700
O811        O  0.25420233  0.40418422  0.54528794    -0.77900
C812        C  0.38582827  0.50301150  0.56109690     1.03000
Fe813      Fe  0.06633847  0.44768657  0.74981587     1.65800
Fe814      Fe  0.15704001  0.48474147  0.75541877     1.73200
Fe815      Fe  0.10214735  0.39295554  0.74870039     1.54400
O816        O  0.06375249  0.37333525  0.79558871    -0.81600
O817        O  0.17933010  0.46593912  0.71288593    -0.79900
O818        O  0.03516860  0.40354605  0.78539929    -0.84100
O819        O  0.04722166  0.41694459  0.69768759    -0.79000
O820        O  0.14181029  0.40390808  0.79297773    -0.80800
O821        O  0.14774612  0.51090193  0.70693128    -0.83500
C822        C  0.04467710  0.38759573  0.68632189     0.97300
C823        C  0.03762053  0.37847859  0.80229442     1.04700
O824        O  0.10855819  0.44173341  0.75135650    -1.12500
O825        O  0.14214587  0.51018973  0.79872177    -0.74900
O826        O  0.08225509  0.47905943  0.80228533    -0.78400
O827        O  0.06132709  0.37402412  0.70415043    -0.79100
C828        C  0.11273787  0.50425232  0.81461061     0.96200
O829        O  0.08971499  0.49277755  0.71315700    -0.77100
O830        O  0.17109125  0.46305809  0.80412141    -0.82300
C831        C  0.16935328  0.43685317  0.69346521     0.98800
C832        C  0.16494371  0.43165277  0.81259355     1.04700
O833        O  0.13971547  0.40813939  0.70132031    -0.77900
C834        C  0.12028788  0.51311360  0.69736609     1.03000
Fe835      Fe  0.53816742  0.91782244  0.50437140     1.65800
Fe836      Fe  0.49590407  0.82666288  0.99586538     1.73200
Fe837      Fe  0.58841237  0.87870234  0.99860159     1.54400
O838        O  0.60895290  0.91929477  0.95414508    -0.81600
O839        O  0.51520430  0.80215036  0.53791245    -0.79900
O840        O  0.57930258  0.94825241  0.96502278    -0.84100
O841        O  0.57054168  0.93505968  0.55576634    -0.79000
O842        O  0.57400387  0.84155872  0.95126395    -0.80800
O843        O  0.47369903  0.83590255  0.54861508    -0.83500
C844        C  0.59877147  0.93469888  0.56577258     0.97300
C845        C  0.60388731  0.94542296  0.94730098     1.04700
O846        O  0.54050516  0.87439529  0.99942716    -1.12500
O847        O  0.47150203  0.84487452  0.95512000    -0.74900
O848        O  0.50262608  0.90477429  0.95452977    -0.78400
O849        O  0.61006949  0.91680285  0.54615499    -0.79100
C850        C  0.47741745  0.87495004  0.94113015     0.96200
O851        O  0.49486533  0.89452449  0.54349998    -0.77100
O852        O  0.51418134  0.81195320  0.94505522    -0.82300
C853        C  0.54499064  0.81070580  0.55507250     0.98800
C854        C  0.54499979  0.81854220  0.93347868     1.04700
O855        O  0.57417833  0.83903364  0.54506168    -0.77900
C856        C  0.47394405  0.86412683  0.55965214     1.03000
Fe857      Fe  0.91590677  0.37328135  0.49462793     1.65800
Fe858      Fe  0.82692949  0.32039367  0.00023193     1.73200
Fe859      Fe  0.88268987  0.28435307  0.00044052     1.54400
O860        O  0.92240443  0.30354673  0.95555311    -0.81600
O861        O  0.80641192  0.27676253  0.53927822    -0.79900
O862        O  0.93973317  0.36121219  0.94550860    -0.84100
O863        O  0.93713560  0.36538119  0.54647232    -0.79000
O864        O  0.84459131  0.25859137  0.95375036    -0.80800
O865        O  0.83905246  0.35288357  0.55127847    -0.83500
C866        C  0.94361459  0.34052815  0.55421547     0.97300
C867        C  0.94104382  0.33324455  0.93697269     1.04700
O868        O  0.87576229  0.32656056  0.99808635    -1.12500
O869        O  0.83507971  0.35696971  0.95388518    -0.74900
O870        O  0.89439134  0.39140043  0.94950051    -0.78400
O871        O  0.92588854  0.30927878  0.53787420    -0.79100
C872        C  0.86298604  0.38253644  0.93756585     0.96200
O873        O  0.89306465  0.39603762  0.53127083    -0.77100
O874        O  0.80851336  0.28182549  0.95440339    -0.82300
C875        C  0.81814316  0.25954511  0.55971012     0.98800
C876        C  0.81816744  0.26084718  0.93944256     1.04700
O877        O  0.84867512  0.26314072  0.55257142    -0.77900
C878        C  0.86586092  0.38432913  0.55507877     1.03000
Fe879      Fe  0.61248682  0.06402931  0.75252611     1.65800
Fe880      Fe  0.66451369  0.15448297  0.74982871     1.73200
Fe881      Fe  0.70330511  0.10188751  0.74866070     1.54400
O882        O  0.68280745  0.05914456  0.79108516    -0.81600
O883        O  0.69672265  0.17007846  0.69870865    -0.79900
O884        O  0.62611658  0.04498497  0.80350991    -0.84100
O885        O  0.62594097  0.03485845  0.71367193    -0.79000
O886        O  0.72716626  0.13665146  0.79839415    -0.80800
O887        O  0.62132814  0.13853629  0.70945981    -0.83500
C888        C  0.65306764  0.03983983  0.69291222     0.97300
C889        C  0.65354731  0.04234170  0.81140215     1.04700
O890        O  0.66022244  0.10686099  0.75062130    -1.12500
O891        O  0.63219215  0.14504900  0.80063365    -0.74900
O892        O  0.59195401  0.08718242  0.79222844    -0.78400
O893        O  0.68423852  0.06677978  0.69868810    -0.79100
C894        C  0.60277731  0.11728255  0.81005942     0.96200
O895        O  0.59545707  0.07932557  0.70080139    -0.77100
O896        O  0.70810035  0.17557290  0.79010956    -0.82300
C897        C  0.72209224  0.16540297  0.68758598     0.98800
C898        C  0.72785241  0.16548006  0.80817753     1.04700
O899        O  0.72902402  0.14339440  0.70584201    -0.77900
C900        C  0.59940939  0.10952806  0.69082441     1.03000
Fe901      Fe  0.91937973  0.53811911  0.74960522     1.65800
Fe902      Fe  0.82860143  0.49901307  0.74553165     1.73200
Fe903      Fe  0.88129054  0.59053571  0.74836053     1.54400
O904        O  0.92355009  0.61155980  0.79155757    -0.81600
O905        O  0.81318288  0.51754347  0.69564007    -0.79900
O906        O  0.93783720  0.56906300  0.80197076    -0.84100
O907        O  0.94882611  0.58238448  0.71300681    -0.79000
O908        O  0.84506460  0.57665336  0.79671172    -0.80800
O909        O  0.84541397  0.47414177  0.70358363    -0.83500
C910        C  0.94367655  0.60470472  0.69307463     0.97300
C911        C  0.94060358  0.59898013  0.81082614     1.04700
O912        O  0.87632137  0.54258297  0.74808282    -1.12500
O913        O  0.83895542  0.47538337  0.79502276    -0.74900
O914        O  0.89656685  0.49261961  0.78650448    -0.78400
O915        O  0.91688865  0.60858084  0.69930725    -0.79100
C916        C  0.86629971  0.47281618  0.80353330     0.96200
O917        O  0.90484820  0.50728864  0.69678863    -0.77100
O918        O  0.80561009  0.51851814  0.78689432    -0.82300
C919        C  0.81852475  0.54825452  0.68578508     0.98800
C920        C  0.81554802  0.54813248  0.80533726     1.04700
O921        O  0.84083634  0.57661566  0.70503361    -0.77900
C922        C  0.87459640  0.48125558  0.68566465     1.03000
Fe923      Fe  0.44469043  0.06430660  0.50352287     1.65800
Fe924      Fe  0.48641237  0.15695372  0.00055726     1.73200
Fe925      Fe  0.39364418  0.10488515  0.00082837     1.54400
O926        O  0.37263201  0.06429229  0.95581339    -0.81600
O927        O  0.46521868  0.17553080  0.54662241    -0.79900
O928        O  0.41030734  0.04317740  0.95127523    -0.84100
O929        O  0.40972250  0.04378174  0.55189387    -0.79000
O930        O  0.40669830  0.14292453  0.95431141    -0.80800
O931        O  0.50852541  0.14307522  0.55241433    -0.83500
C932        C  0.38231395  0.04511569  0.56288628     0.97300
C933        C  0.38233896  0.04352030  0.94002706     1.04700
O934        O  0.44198854  0.10932280  0.99987701    -1.12500
O935        O  0.51079759  0.14422442  0.95276678    -0.74900
O936        O  0.48691826  0.08515764  0.95677324    -0.78400
O937        O  0.37169458  0.06427808  0.54488562    -0.79100
C938        C  0.50917368  0.11522092  0.94117313     0.96200
O939        O  0.48545551  0.08420122  0.54669647    -0.77100
O940        O  0.46657212  0.17739198  0.95674947    -0.82300
C941        C  0.43458979  0.16749604  0.56111742     0.98800
C942        C  0.43607097  0.16993758  0.94230111     1.04700
O943        O  0.40546749  0.14122667  0.54742225    -0.77900
C944        C  0.50656788  0.11404223  0.56382209     1.03000
Fe945      Fe  0.61328227  0.54305176  0.50090226     1.65800
Fe946      Fe  0.66705530  0.50289221  0.99888025     1.73200
Fe947      Fe  0.70636290  0.59530425  0.00057033     1.54400
O948        O  0.68557849  0.61440169  0.95554816    -0.81600
O949        O  0.70666188  0.52760631  0.54186405    -0.79900
O950        O  0.62620930  0.58254676  0.96440838    -0.84100
O951        O  0.62552329  0.57528156  0.55182338    -0.79000
O952        O  0.73192745  0.58352181  0.95361814    -0.80800
O953        O  0.63062979  0.48042294  0.54773682    -0.83500
C954        C  0.65368790  0.60356078  0.56357751     0.97300
C955        C  0.65398064  0.60818614  0.94791233     1.04700
O956        O  0.66276175  0.54631797  0.00084887    -1.12500
O957        O  0.62662855  0.47677430  0.95474472    -0.74900
O958        O  0.59653014  0.50608570  0.95323547    -0.78400
O959        O  0.68398465  0.61645323  0.54558240    -0.79100
C960        C  0.60229091  0.48180661  0.93959207     0.96200
O961        O  0.59252603  0.50007753  0.54064954    -0.77100
O962        O  0.70354687  0.52374774  0.95134333    -0.82300
C963        C  0.72879157  0.55768430  0.55795929     0.98800
C964        C  0.72738809  0.55445999  0.93810440     1.04700
O965        O  0.73049593  0.58671481  0.54697523    -0.77900
C966        C  0.60186175  0.47965011  0.55777755     1.03000
Fe967      Fe  0.44377679  0.37435531  0.74784945     1.65800
Fe968      Fe  0.48662746  0.32597826  0.75004078     1.73200
Fe969      Fe  0.39399381  0.28206292  0.75158924     1.54400
O970        O  0.37267120  0.30002210  0.79748245    -0.81600
O971        O  0.46883847  0.28567253  0.70643405    -0.79900
O972        O  0.40635383  0.35970515  0.79358777    -0.84100
O973        O  0.40439426  0.35842554  0.70395469    -0.79000
O974        O  0.41023602  0.25991916  0.79795279    -0.80800
O975        O  0.50891803  0.36281502  0.70220068    -0.83500
C976        C  0.37823348  0.32898999  0.69145074     0.97300
C977        C  0.38022090  0.33129442  0.80870641     1.04700
O978        O  0.44136382  0.32734047  0.74980097    -1.12500
O979        O  0.51060616  0.36605660  0.79423973    -0.74900
O980        O  0.48321326  0.39779213  0.79253444    -0.78400
O981        O  0.37153425  0.29854266  0.70517347    -0.79100
C982        C  0.50706061  0.39192729  0.80697224     0.96200
O983        O  0.48113801  0.39432989  0.70058685    -0.77100
O984        O  0.47017545  0.28840347  0.79712149    -0.82300
C985        C  0.43844862  0.26131118  0.69318468     0.98800
C986        C  0.44002258  0.26431877  0.81127381     1.04700
O987        O  0.40899387  0.25789547  0.70625688    -0.77900
C988        C  0.50436759  0.38731761  0.68671976     1.03000
Fe989      Fe  0.06523646  0.60956835  0.50817849     1.65800
Fe990      Fe  0.15562919  0.66202861  0.00038990     1.73200
Fe991      Fe  0.10297130  0.70078824  0.99974126     1.54400
O992        O  0.06392570  0.67973912  0.95351419    -0.81600
O993        O  0.17794845  0.70168015  0.54322147    -0.79900
O994        O  0.03377614  0.62118923  0.96724760    -0.84100
O995        O  0.04566084  0.62525787  0.55629195    -0.79000
O996        O  0.14127442  0.72601267  0.95363843    -0.80800
O997        O  0.14784914  0.62575176  0.54512065    -0.83500
C998        C  0.04718130  0.65418996  0.56666790     0.97300
C999        C  0.03734989  0.64824155  0.94775260     1.04700
O1000       O  0.10784496  0.65765842  0.00190228    -1.12500
O1001       O  0.13869786  0.62018882  0.95831303    -0.74900
O1002       O  0.07883422  0.59134273  0.95416837    -0.78400
O1003       O  0.06626818  0.68374897  0.54815265    -0.79100
C1004       C  0.10910449  0.59687103  0.94173011     0.96200
O1005       O  0.08844352  0.59289976  0.55176409    -0.77100
O1006       O  0.17134449  0.69674613  0.95098169    -0.82300
C1007       C  0.16953537  0.72320331  0.55928663     0.98800
C1008       C  0.16540575  0.72108018  0.93805388     1.04700
O1009       O  0.14292849  0.72578027  0.54666475    -0.77900
C1010       C  0.11997594  0.60090685  0.56240297     1.03000
Fe1011     Fe  0.37372259  0.92027623  0.74522822     1.65800
Fe1012     Fe  0.32216611  0.82931984  0.74906983     1.73200
Fe1013     Fe  0.28236365  0.88088633  0.75154857     1.54400
O1014       O  0.30287218  0.91751977  0.80007759    -0.81600
O1015       O  0.27851119  0.80832241  0.70978482    -0.79900
O1016       O  0.36171350  0.94898494  0.78679861    -0.84100
O1017       O  0.35839341  0.94013254  0.69708061    -0.79000
O1018       O  0.25777015  0.83932493  0.79492944    -0.80800
O1019       O  0.35417362  0.84060125  0.69772694    -0.83500
C1020       C  0.33029397  0.94144803  0.68924426     0.97300
C1021       C  0.33418285  0.94442649  0.80621152     1.04700
O1022       O  0.32605470  0.87686039  0.74882886    -1.12500
O1023       O  0.36547518  0.84407855  0.78851325    -0.74900
O1024       O  0.39333366  0.90370545  0.79363827    -0.78400
O1025       O  0.30071492  0.92256221  0.70825331    -0.79100
C1026       C  0.38903474  0.87346789  0.80474182     0.96200
O1027       O  0.39288442  0.89938033  0.70165911    -0.77100
O1028       O  0.28972408  0.81214142  0.80030098    -0.82300
C1029       C  0.25770712  0.81738752  0.69262485     0.98800
C1030       C  0.26403531  0.81625491  0.81175483     1.04700
O1031       O  0.25749728  0.84559368  0.70288301    -0.77900
C1032       C  0.38172768  0.86897645  0.68508185     1.03000
C1033       C  0.22183778  0.74614035  0.89798465    -0.12200
C1034       C  0.18935097  0.74540235  0.90490636     0.04800
C1035       C  0.18210924  0.76869996  0.88131506    -0.07500
C1036       C  0.20713619  0.79180685  0.85197811    -0.08300
C1037       C  0.23960393  0.79242792  0.84501711    -0.02800
C1038       C  0.24669405  0.76894454  0.86864200     0.04000
N1039       N  0.27894683  0.76760711  0.86411694     0.66500
H1040       H  0.22853274  0.72914332  0.91580687     0.15400
H1041       H  0.20061029  0.80886568  0.83405550     0.15100
N1042       N  0.14922409  0.76883849  0.88526384     0.74200
O1043       O  0.30390593  0.78411250  0.89020835    -0.39200
O1044       O  0.27731103  0.74140444  0.84485556    -0.39200
O1045       O  0.14980251  0.79485386  0.90373874    -0.39900
O1046       O  0.12438539  0.75109274  0.85943065    -0.39900
C1047       C  0.23690650  0.76394039  0.64806483    -0.12200
C1048       C  0.23365701  0.79362890  0.65908567     0.04800
C1049       C  0.20827923  0.79918397  0.63740628    -0.07500
C1050       C  0.18789249  0.77590388  0.60523741    -0.08300
C1051       C  0.19168333  0.74658963  0.59399750    -0.02800
C1052       C  0.21633280  0.74053138  0.61643537     0.04000
N1053       N  0.22073964  0.71043057  0.60875340     0.66500
H1054       H  0.25555801  0.75843157  0.66400148     0.15400
H1055       H  0.16913900  0.78106328  0.58896401     0.15100
N1056       N  0.20231526  0.82797181  0.64697433     0.74200
O1057       O  0.24775402  0.71542523  0.58820736    -0.39200
O1058       O  0.20616272  0.68405622  0.63335507    -0.39200
O1059       O  0.21347894  0.85368163  0.62162546    -0.39900
O1060       O  0.17603906  0.82146961  0.66991408    -0.39900
C1061       C  0.55447944  0.40594138  0.85995827    -0.12200
C1062       C  0.53176300  0.41586179  0.84008191     0.04800
C1063       C  0.53358704  0.44819749  0.85249865    -0.07500
C1064       C  0.55701271  0.46897267  0.88432102    -0.08300
C1065       C  0.57928751  0.45876256  0.90476443    -0.02800
C1066       C  0.57802201  0.42681934  0.89173694     0.04000
N1067       N  0.59963370  0.41423125  0.91048548     0.66500
H1068       H  0.55388275  0.38161219  0.85126221     0.15400
H1069       H  0.55761383  0.49334170  0.89288790     0.15100
N1070       N  0.51249151  0.46118285  0.83321572     0.74200
O1071       O  0.58535722  0.38953036  0.93723238    -0.39200
O1072       O  0.62679670  0.41830858  0.89100777    -0.39200
O1073       O  0.48509405  0.45723600  0.85201888    -0.39900
O1074       O  0.52728755  0.48589137  0.80654261    -0.39900
C1075       C  0.54322095  0.45091194  0.59440538    -0.12200
C1076       C  0.57732607  0.45436924  0.59015176     0.04800
C1077       C  0.58621109  0.43395210  0.61686764    -0.07500
C1078       C  0.56174460  0.41190245  0.64737938    -0.08300
C1079       C  0.52810416  0.40931585  0.65210884    -0.02800
C1080       C  0.51874928  0.42871534  0.62449643     0.04000
N1081       N  0.48411905  0.42553039  0.62509314     0.66500
H1082       H  0.53503195  0.46529426  0.57405242     0.15400
H1083       H  0.56950258  0.39726228  0.66788000     0.15100
N1084       N  0.61979846  0.43507988  0.61420659     0.74200
O1085       O  0.48102925  0.45023604  0.64174537    -0.39200
O1086       O  0.46113381  0.40573405  0.59838679    -0.39200
O1087       O  0.64375033  0.45297062  0.64090901    -0.39900
O1088       O  0.62071243  0.40993178  0.59548301    -0.39900
C1089       C  0.32682240  0.95841326  0.87856217    -0.12200
C1090       C  0.33973717  0.97091441  0.83859454     0.04800
C1091       C  0.36142113  0.00838420  0.83182928    -0.07500
C1092       C  0.37195919  0.03215010  0.86536876    -0.08300
C1093       C  0.36165632  0.01931727  0.90576988    -0.02800
C1094       C  0.33800907  0.98217717  0.91221696     0.04000
N1095       N  0.32677635  0.96766411  0.95286223     0.66500
H1096       H  0.31017298  0.92989383  0.88420713     0.15400
H1097       H  0.39019708  0.06049473  0.86012214     0.15100
N1098       N  0.37377168  0.02295960  0.79139665     0.74200
O1099       O  0.29584512  0.95996238  0.96484453    -0.39200
O1100       O  0.34179942  0.95237194  0.97003444    -0.39200
O1101       O  0.35811887  0.03686953  0.77254117    -0.39900
O1102       O  0.40559341  0.03229196  0.78133104    -0.39900
C1103       C  0.33169588  0.98886649  0.58981505    -0.12200
C1104       C  0.36207813  0.02247763  0.59788916     0.04800
C1105       C  0.37692210  0.03051964  0.63797807    -0.07500
C1106       C  0.36298137  0.00412112  0.66853601    -0.08300
C1107       C  0.33489519  0.96932405  0.65962245    -0.02800
C1108       C  0.31801654  0.96208900  0.62045824     0.04000
N1109       N  0.28844126  0.92758739  0.61016617     0.66500
H1110       H  0.32039467  0.98254832  0.55906760     0.15400
H1111       H  0.37599413  0.01000886  0.69833403     0.15100
N1112       N  0.40796971  0.06437393  0.64757345     0.74200
O1113       O  0.25751003  0.92390973  0.60921466    -0.39200
O1114       O  0.29425424  0.90648658  0.58904075    -0.39200
O1115       O  0.40395611  0.08681520  0.66834253    -0.39900
O1116       O  0.43846455  0.06697954  0.64704472    -0.39900
C1117       C  0.46485320  0.20885194  0.62010889    -0.12200
C1118       C  0.43369129  0.18977189  0.59586448     0.04800
C1119       C  0.40347908  0.19307586  0.60552920    -0.07500
C1120       C  0.40567730  0.21619430  0.63740266    -0.08300
C1121       C  0.43727907  0.23610048  0.66080332    -0.02800
C1122       C  0.46688403  0.23143405  0.65231545     0.04000
N1123       N  0.49894787  0.24799335  0.67681430     0.66500
H1124       H  0.48790526  0.20599551  0.61446858     0.15400
H1125       H  0.38255744  0.21888463  0.64332886     0.15100
N1126       N  0.37048145  0.17417162  0.58299060     0.74200
O1127       O  0.50246726  0.22953533  0.70481405    -0.39200
O1128       O  0.52688381  0.27440327  0.66182118    -0.39200
O1129       O  0.34430489  0.14712680  0.59974741    -0.39900
O1130       O  0.36415469  0.19072603  0.55500927    -0.39900
C1131       C  0.41068479  0.22576276  0.87305618    -0.12200
C1132       C  0.43933717  0.24024980  0.84473724     0.04800
C1133       C  0.46633290  0.23102538  0.84898232    -0.07500
C1134       C  0.46422748  0.20805053  0.88082864    -0.08300
C1135       C  0.43569647  0.19359193  0.90912379    -0.02800
C1136       C  0.40875934  0.20291329  0.90523031     0.04000
N1137       N  0.38051512  0.19160011  0.93487536     0.66500
H1138       H  0.39005198  0.23284658  0.87087407     0.15400
H1139       H  0.48494042  0.20107153  0.88299247     0.15100
N1140       N  0.49536733  0.24310062  0.82032931     0.74200
O1141       O  0.38430372  0.21292194  0.96375558    -0.39200
O1142       O  0.34912528  0.16758333  0.92458785    -0.39200
O1143       O  0.52624563  0.26757572  0.83158778    -0.39900
O1144       O  0.49290150  0.22198305  0.79186077    -0.39900
C1145       C  0.95086556  0.60290925  0.88563141    -0.12200
C1146       C  0.96328914  0.61835215  0.84665890     0.04800
C1147       C  0.99879549  0.64760713  0.84264965    -0.07500
C1148       C  0.02184871  0.65923277  0.87717918    -0.08300
C1149       C  0.01023314  0.64164386  0.91549323    -0.02800
C1150       C  0.97382397  0.61420943  0.91994054     0.04000
N1151       N  0.95960784  0.59679269  0.95875510     0.66500
H1152       H  0.92368317  0.58070771  0.88902866     0.15400
H1153       H  0.04953870  0.68010109  0.87316228     0.15100
N1154       N  0.01305561  0.66391502  0.80339582     0.74200
O1155       O  0.94191052  0.60682778  0.98026393    -0.39200
O1156       O  0.95460655  0.56564617  0.96439342    -0.39200
O1157       O  0.01741075  0.69460597  0.79612714    -0.39900
O1158       O  0.03144027  0.65387156  0.78327258    -0.39900
C1159       C  0.98861370  0.64300537  0.59028565    -0.12200
C1160       C  0.02385380  0.65215607  0.60038104     0.04800
C1161       C  0.03338921  0.65169611  0.64193882    -0.07500
C1162       C  0.00688455  0.63902200  0.67235594    -0.08300
C1163       C  0.97083961  0.62654935  0.66192742    -0.02800
C1164       C  0.96191846  0.63016806  0.62078151     0.04000
N1165       N  0.92564510  0.61757613  0.60829810     0.66500
H1166       H  0.98126817  0.64314157  0.55840549     0.15400
H1167       H  0.01407252  0.63673753  0.70365803     0.15100
N1168       N  0.06924283  0.66174938  0.65370760     0.74200
O1169       O  0.91575874  0.64025038  0.60299231    -0.39200
O1170       O  0.90829085  0.58744926  0.59054246    -0.39200
O1171       O  0.08867925  0.69189919  0.67074429    -0.39900
O1172       O  0.07681719  0.63740191  0.65925504    -0.39900
C1173       C  0.79847694  0.58401893  0.64488349    -0.12200
C1174       C  0.79730500  0.55119395  0.65129524     0.04800
C1175       C  0.77493746  0.52183028  0.62536987    -0.07500
C1176       C  0.75337713  0.52523175  0.59576889    -0.08300
C1177       C  0.75346775  0.55754481  0.59008602    -0.02800
C1178       C  0.77710517  0.58756481  0.61457739     0.04000
N1179       N  0.78007894  0.62185800  0.60976729     0.66500
H1180       H  0.81566587  0.60706042  0.66376436     0.15400
H1181       H  0.73661399  0.50202883  0.57691293     0.15100
N1182       N  0.77383374  0.48823402  0.62751684     0.74200
O1183       O  0.76389460  0.63086798  0.63519930    -0.39200
O1184       O  0.80704093  0.64621610  0.59078420    -0.39200
O1185       O  0.74693891  0.46186925  0.64423419    -0.39900
O1186       O  0.79195886  0.48217080  0.60157259    -0.39900
C1187       C  0.80471973  0.58179319  0.86105199    -0.12200
C1188       C  0.79206135  0.54976194  0.83828338     0.04800
C1189       C  0.75749385  0.52046207  0.84791966    -0.07500
C1190       C  0.73718010  0.52353125  0.87955188    -0.08300
C1191       C  0.75012194  0.55510725  0.90300585    -0.02800
C1192       C  0.78437283  0.58469206  0.89313464     0.04000
N1193       N  0.80003906  0.61751480  0.91600518     0.66500
H1194       H  0.83080631  0.60459404  0.85465122     0.15400
H1195       H  0.71106447  0.50065329  0.88582543     0.15100
N1196       N  0.74197874  0.48695266  0.82648307     0.74200
O1197       O  0.82236194  0.62244666  0.94432327    -0.39200
O1198       O  0.80116234  0.64457194  0.89941690    -0.39200
O1199       O  0.74176641  0.46076159  0.84424660    -0.39900
O1200       O  0.71881936  0.48060558  0.79870054    -0.39900
C1201       C  0.55927866  0.08720228  0.86640746    -0.12200
C1202       C  0.58036758  0.11884029  0.84397386     0.04800
C1203       C  0.57865602  0.14978752  0.85442430    -0.07500
C1204       C  0.55565864  0.14810848  0.88630645    -0.08300
C1205       C  0.53392142  0.11603803  0.90825312    -0.02800
C1206       C  0.53632461  0.08537978  0.89788812     0.04000
N1207       N  0.51555273  0.05154588  0.91821936     0.66500
H1208       H  0.56042885  0.06350185  0.85955336     0.15400
H1209       H  0.55444035  0.17173562  0.89323297     0.15100
N1210       N  0.59850107  0.18281554  0.83220543     0.74200
O1211       O  0.48724255  0.02775857  0.90063791    -0.39200
O1212       O  0.53108383  0.04185775  0.94399957    -0.39200
O1213       O  0.58221253  0.19056018  0.80525318    -0.39900
O1214       O  0.62660615  0.20798470  0.84863602    -0.39900
C1215       C  0.56383150  0.13496315  0.66183629    -0.12200
C1216       C  0.57663525  0.11104957  0.65742031     0.04800
C1217       C  0.56640559  0.08871281  0.62209263    -0.07500
C1218       C  0.54370535  0.09053824  0.59239884    -0.08300
C1219       C  0.53068137  0.11427367  0.59681600    -0.02800
C1220       C  0.54088709  0.13663104  0.63216011     0.04000
N1221       N  0.52680558  0.15965647  0.64014544     0.66500
H1222       H  0.57076373  0.15165349  0.68892421     0.15400
H1223       H  0.53671621  0.07366174  0.56546192     0.15100
N1224       N  0.57997052  0.06519044  0.61436155     0.74200
O1225       O  0.50002936  0.14850170  0.66392557    -0.39200
O1226       O  0.54728702  0.19310473  0.63563966    -0.39200
O1227       O  0.55921334  0.03183252  0.61934829    -0.39900
O1228       O  0.60658876  0.07581605  0.59044758    -0.39900
C1229       C  0.76036333  0.22502091  0.84232037    -0.12200
C1230       C  0.75271037  0.18925608  0.84134005     0.04800
C1231       C  0.76849372  0.17799200  0.87207387    -0.07500
C1232       C  0.79054486  0.20212555  0.90294693    -0.08300
C1233       C  0.79703202  0.23740374  0.90439953    -0.02800
C1234       C  0.78200428  0.24888118  0.87326199     0.04000
N1235       N  0.78916382  0.28499620  0.87121128     0.66500
H1236       H  0.74965461  0.23476088  0.81903504     0.15400
H1237       H  0.80154069  0.19289366  0.92645745     0.15100
N1238       N  0.76158752  0.14199584  0.87413842     0.74200
O1239       O  0.81333945  0.30666867  0.84681408    -0.39200
O1240       O  0.76470452  0.29120277  0.88187764    -0.39200
O1241       O  0.78604206  0.13599748  0.86283483    -0.39900
O1242       O  0.73808058  0.12047252  0.89926326    -0.39900
C1243       C  0.78030809  0.19297997  0.65031379    -0.12200
C1244       C  0.74544299  0.18758895  0.65308620     0.04800
C1245       C  0.73471287  0.20505709  0.62417167    -0.07500
C1246       C  0.75900165  0.22797403  0.59452128    -0.08300
C1247       C  0.79428073  0.23424866  0.59223637    -0.02800
C1248       C  0.80468415  0.21594305  0.62042875     0.04000
N1249       N  0.83979138  0.22032575  0.62021962     0.66500
H1250       H  0.78913640  0.18007072  0.67197763     0.15400
H1251       H  0.74976924  0.24068110  0.57308101     0.15100
N1252       N  0.69909401  0.19950170  0.62316921     0.74200
O1253       O  0.86258556  0.24138703  0.64631929    -0.39200
O1254       O  0.84347448  0.19535187  0.60542657    -0.39200
O1255       O  0.69417011  0.22411705  0.63655099    -0.39900
O1256       O  0.67695523  0.17738177  0.59729615    -0.39900
C1257       C  0.88536097  0.41163114  0.87017764    -0.12200
C1258       C  0.85999099  0.40228298  0.90184703     0.04800
C1259       C  0.83444141  0.41343223  0.89887342    -0.07500
C1260       C  0.83631754  0.43549887  0.86584238    -0.08300
C1261       C  0.86311589  0.44653453  0.83533793    -0.02800
C1262       C  0.88699106  0.43316591  0.83703232     0.04000
N1263       N  0.91265986  0.44019673  0.80514214     0.66500
H1264       H  0.90425509  0.40227453  0.87118936     0.15400
H1265       H  0.81753203  0.44496738  0.86496040     0.15100
N1266       N  0.80764738  0.40453097  0.92987769     0.74200
O1267       O  0.94512307  0.46384890  0.81144526    -0.39200
O1268       O  0.90560488  0.41587595  0.77884584    -0.39200
O1269       O  0.81258834  0.42800874  0.95647165    -0.39900
O1270       O  0.77591756  0.37960402  0.92246331    -0.39900
C1271       C  0.89887066  0.44134310  0.59437914    -0.12200
C1272       C  0.86654327  0.40871017  0.58812785     0.04800
C1273       C  0.83689971  0.40071325  0.61395159    -0.07500
C1274       C  0.84025625  0.42508131  0.64468974    -0.08300
C1275       C  0.87278532  0.45748254  0.65124583    -0.02800
C1276       C  0.90238594  0.46541997  0.62541843     0.04000
N1277       N  0.93658730  0.49749943  0.62983285     0.66500
H1278       H  0.92205055  0.44828913  0.57555333     0.15400
H1279       H  0.81727261  0.41809186  0.66388962     0.15100
N1280       N  0.80306258  0.36812098  0.61020918     0.74200
O1281       O  0.96125626  0.49566242  0.64879394    -0.39200
O1282       O  0.94523063  0.52258043  0.60400300    -0.39200
O1283       O  0.79542506  0.34336174  0.63619634    -0.39900
O1284       O  0.77769922  0.36905355  0.59174797    -0.39900
C1285       C  0.63349730  0.96205836  0.87824782    -0.12200
C1286       C  0.62575589  0.97297348  0.91588846     0.04800
C1287       C  0.63449040  0.00909993  0.92025166    -0.07500
C1288       C  0.64687297  0.03224289  0.88614978    -0.08300
C1289       C  0.65101632  0.02026195  0.84748528    -0.02800
C1290       C  0.64588572  0.98539256  0.84394931     0.04000
N1291       N  0.65034721  0.97203590  0.80534402     0.66500
H1292       H  0.62737946  0.93486747  0.87446322     0.15400
H1293       H  0.65123818  0.05889517  0.88928996     0.15100
N1294       N  0.63004897  0.02282446  0.95863403     0.74200
O1295       O  0.67888525  0.97131270  0.79947149    -0.39200
O1296       O  0.62272757  0.95131630  0.78437491    -0.39200
O1297       O  0.65760182  0.04212395  0.98043469    -0.39900
O1298       O  0.60258625  0.02569576  0.96343478    -0.39900
C1299       C  0.64788544  0.99293618  0.59106954    -0.12200
C1300       C  0.61980539  0.95812131  0.60037132     0.04800
C1301       C  0.60744469  0.94958980  0.64143322    -0.07500
C1302       C  0.62108309  0.97640628  0.67165755    -0.08300
C1303       C  0.64677206  0.01210065  0.66175950    -0.02800
C1304       C  0.66164474  0.01998484  0.62145596     0.04000
N1305       N  0.68839274  0.05554903  0.60951159     0.66500
H1306       H  0.65727351  0.99975934  0.55968003     0.15400
H1307       H  0.61011738  0.96964147  0.70242821     0.15100
N1308       N  0.57979693  0.91427900  0.65290840     0.74200
O1309       O  0.72067238  0.06303988  0.60710215    -0.39200
O1310       O  0.67880724  0.07439681  0.58935145    -0.39200
O1311       O  0.58857422  0.89445636  0.67233933    -0.39900
O1312       O  0.54787627  0.90782602  0.65570444    -0.39900
C1313       C  0.42424581  0.90048383  0.86857998    -0.12200
C1314       C  0.41163331  0.87282727  0.83911131     0.04800
C1315       C  0.42036323  0.84553697  0.84418563    -0.07500
C1316       C  0.44157688  0.84685818  0.87782994    -0.08300
C1317       C  0.45445150  0.87477950  0.90692042    -0.02800
C1318       C  0.44516414  0.90157563  0.90230778     0.04000
N1319       N  0.45496090  0.92919075  0.93243362     0.66500
H1320       H  0.41722017  0.92109040  0.86605376     0.15400
H1321       H  0.44839999  0.82620137  0.88082788     0.15100
N1322       N  0.40916539  0.81680029  0.81522127     0.74200
O1323       O  0.48166946  0.95991061  0.92518681    -0.39200
O1324       O  0.43127509  0.92643647  0.95750580    -0.39200
O1325       O  0.43185334  0.81830974  0.78944574    -0.39900
O1326       O  0.38264095  0.78645047  0.82442440    -0.39900
C1327       C  0.41094129  0.83865664  0.65268169    -0.12200
C1328       C  0.40271768  0.86617184  0.65104945     0.04800
C1329       C  0.41637921  0.89126104  0.61840254    -0.07500
C1330       C  0.43880968  0.88920701  0.58896114    -0.08300
C1331       C  0.44838895  0.86261179  0.59120877    -0.02800
C1332       C  0.43368752  0.83668415  0.62322434     0.04000
N1333       N  0.44253252  0.80917565  0.62797357     0.66500
H1334       H  0.40081237  0.81951151  0.67761210     0.15400
H1335       H  0.44860924  0.90853333  0.56420153     0.15100
N1336       N  0.40679371  0.91822372  0.61326215     0.74200
O1337       O  0.46678976  0.81407713  0.65361299    -0.39200
O1338       O  0.41915532  0.77739112  0.61833044    -0.39200
O1339       O  0.42990340  0.95039704  0.62172731    -0.39900
O1340       O  0.38172086  0.91218412  0.58831988    -0.39900
C1341       C  0.13959465  0.56879593  0.90619335    -0.12200
C1342       C  0.11031551  0.57450527  0.90766668     0.04800
C1343       C  0.08302261  0.55809084  0.87726987    -0.07500
C1344       C  0.08456344  0.53517140  0.84791309    -0.08300
C1345       C  0.11330374  0.52867131  0.84712709    -0.02800
C1346       C  0.14158069  0.54655704  0.87610750     0.04000
N1347       N  0.17214902  0.54201957  0.87671415     0.66500
H1348       H  0.16083017  0.58115283  0.92878237     0.15400
H1349       H  0.06353278  0.52311493  0.82501702     0.15100
N1350       N  0.05445078  0.56560355  0.87384158     0.74200
O1351       O  0.20108380  0.56624465  0.86075210    -0.39200
O1352       O  0.17375544  0.52206019  0.90424942    -0.39200
O1353       O  0.05703778  0.58807153  0.84691530    -0.39900
O1354       O  0.02356554  0.54231565  0.88642343    -0.39900
C1355       C  0.09933035  0.57281481  0.63058481    -0.12200
C1356       C  0.12348853  0.58116390  0.59779927     0.04800
C1357       C  0.14888526  0.56974673  0.59982812    -0.07500
C1358       C  0.14836119  0.54875963  0.63344038    -0.08300
C1359       C  0.12311288  0.53919554  0.66547438    -0.02800
C1360       C  0.09920136  0.55258245  0.66439411     0.04000
N1361       N  0.07514998  0.54713088  0.69768408     0.66500
H1362       H  0.08048009  0.58198671  0.63005207     0.15400
H1363       H  0.16669488  0.53887234  0.63358478     0.15100
N1364       N  0.17398427  0.57702377  0.56722194     0.74200
O1365       O  0.08457565  0.57189849  0.72405340    -0.39200
O1366       O  0.04202452  0.52502059  0.69272986    -0.39200
O1367       O  0.20655697  0.60055366  0.57312408    -0.39900
O1368       O  0.16644539  0.55305810  0.54028022    -0.39900
C1369       C  0.02098565  0.35059710  0.87160169    -0.12200
C1370       C  0.00988748  0.35685075  0.83323441     0.04800
C1371       C  0.97379843  0.34851854  0.82835537    -0.07500
C1372       C  0.95096088  0.33775891  0.86251540    -0.08300
C1373       C  0.96325412  0.33522624  0.90166058    -0.02800
C1374       C  0.99799651  0.33997851  0.90593758     0.04000
N1375       N  0.01180300  0.33737546  0.94519065     0.66500
H1376       H  0.04835593  0.35684946  0.87587156     0.15400
H1377       H  0.92417564  0.33344503  0.85887569     0.15100
N1378       N  0.95977424  0.35170997  0.78942796     0.74200
O1379       O  0.01174219  0.30882215  0.95376982    -0.39200
O1380       O  0.03454732  0.36606828  0.96284026    -0.39200
O1381       O  0.93796927  0.32316595  0.77072869    -0.39900
O1382       O  0.95822438  0.37966388  0.78244441    -0.39900
C1383       C  0.96954381  0.32431735  0.61356610    -0.12200
C1384       C  0.97319863  0.34939400  0.58339888     0.04800
C1385       C  0.00383388  0.38435779  0.58423925    -0.07500
C1386       C  0.02841908  0.39432123  0.61644699    -0.08300
C1387       C  0.02289002  0.37078115  0.64904939    -0.02800
C1388       C  0.99404972  0.33484264  0.64674504     0.04000
N1389       N  0.98711567  0.30940431  0.67892392     0.66500
H1390       H  0.94653989  0.29766303  0.61312491     0.15400
H1391       H  0.05069147  0.42145070  0.61735203     0.15100
N1392       N  0.01003885  0.41116961  0.55398851     0.74200
O1393       O  0.96337387  0.30376166  0.70540220    -0.39200
O1394       O  0.99438985  0.28499162  0.67236199    -0.39200
O1395       O  0.00110795  0.43405758  0.56268855    -0.39900
O1396       O  0.03505111  0.41985284  0.52823501    -0.39900
C1397       C  0.32730781  0.32766651  0.90537297    -0.12200
C1398       C  0.32969320  0.36119155  0.90137136     0.04800
C1399       C  0.34258002  0.38063362  0.86426483    -0.07500
C1400       C  0.35586945  0.36817828  0.83339626    -0.08300
C1401       C  0.35768548  0.33684808  0.83895632    -0.02800
C1402       C  0.34109580  0.31519093  0.87422724     0.04000
N1403       N  0.33980404  0.28183960  0.88062343     0.66500
H1404       H  0.31740797  0.31267377  0.93357807     0.15400
H1405       H  0.36668869  0.38426482  0.80604266     0.15100
N1406       N  0.34458097  0.41439676  0.85813124     0.74200
O1407       O  0.36318810  0.28125799  0.90370783    -0.39200
O1408       O  0.31024068  0.25306803  0.87507375    -0.39200
O1409       O  0.37462533  0.44291596  0.86224709    -0.39900
O1410       O  0.32045106  0.41521019  0.83673498    -0.39900
C1411       C  0.32289307  0.35747277  0.62860387    -0.12200
C1412       C  0.33439525  0.35556098  0.58864682     0.04800
C1413       C  0.35483540  0.33868604  0.58289788    -0.07500
C1414       C  0.36531652  0.32623196  0.61719937    -0.08300
C1415       C  0.35678180  0.33131858  0.65741158    -0.02800
C1416       C  0.33462848  0.34634775  0.66308255     0.04000
N1417       N  0.32568815  0.35284689  0.70349493     0.66500
H1418       H  0.30748649  0.37050225  0.63343380     0.15400
H1419       H  0.38262422  0.31525569  0.61256945     0.15100
N1420       N  0.36653045  0.33514899  0.54274824     0.74200
O1421       O  0.34403401  0.38392788  0.71876947    -0.39200
O1422       O  0.29423914  0.33238137  0.71688643    -0.39200
O1423       O  0.39862106  0.35680577  0.53225373    -0.39900
O1424       O  0.34962886  0.30509561  0.52477678    -0.39900
C1425       C  0.19330512  0.44999425  0.88220454    -0.12200
C1426       C  0.18548075  0.42774674  0.84731818     0.04800
C1427       C  0.19866858  0.40362342  0.84621479    -0.07500
C1428       C  0.22000824  0.40313039  0.87880600    -0.08300
C1429       C  0.22841621  0.42608099  0.91281035    -0.02800
C1430       C  0.21421001  0.44906852  0.91492284     0.04000
N1431       N  0.22041327  0.47110199  0.95062925     0.66500
H1432       H  0.18282842  0.46806956  0.88421982     0.15400
H1433       H  0.23095917  0.38561354  0.87682473     0.15100
N1434       N  0.19259704  0.38069261  0.81158516     0.74200
O1435       O  0.24534991  0.50357089  0.94979870    -0.39200
O1436       O  0.20752927  0.45635916  0.98514620    -0.39200
O1437       O  0.21772123  0.38990814  0.78575472    -0.39900
O1438       O  0.16935225  0.34776706  0.81509528    -0.39900
C1439       C  0.24974133  0.46237402  0.62225992    -0.12200
C1440       C  0.23607904  0.43258186  0.59572983     0.04800
C1441       C  0.20013169  0.40448474  0.60147107    -0.07500
C1442       C  0.17936777  0.40646266  0.63362126    -0.08300
C1443       C  0.19311371  0.43631789  0.66023345    -0.02800
C1444       C  0.22896390  0.46472855  0.65387765     0.04000
N1445       N  0.24529732  0.49651483  0.67870801     0.66500
H1446       H  0.27681124  0.48438372  0.61836000     0.15400
H1447       H  0.15199309  0.38475946  0.63696546     0.15100
N1448       N  0.18308523  0.37468058  0.57375823     0.74200
O1449       O  0.26651705  0.49912918  0.70734149    -0.39200
O1450       O  0.24839056  0.52494148  0.66357604    -0.39200
O1451       O  0.17685046  0.34434481  0.58630284    -0.39900
O1452       O  0.16420718  0.37597705  0.54456103    -0.39900
C1453       C  0.61152967  0.65304199  0.88890805    -0.12200
C1454       C  0.62399984  0.65306153  0.84895765     0.04800
C1455       C  0.65096812  0.64423553  0.84327173    -0.07500
C1456       C  0.66335570  0.63319777  0.87719741    -0.08300
C1457       C  0.64831814  0.62975820  0.91656701    -0.02800
C1458       C  0.62339700  0.64143200  0.92272025     0.04000
N1459       N  0.60911269  0.64103114  0.96275169     0.66500
H1460       H  0.59097889  0.65974613  0.89344227     0.15400
H1461       H  0.68222694  0.62433766  0.87204692     0.15100
N1462       N  0.66394443  0.64324106  0.80293967     0.74200
O1463       O  0.62212760  0.67020335  0.98252818    -0.39200
O1464       O  0.57779484  0.61599444  0.97154507    -0.39200
O1465       O  0.69491824  0.66804522  0.79259044    -0.39900
O1466       O  0.65018229  0.61355805  0.78413494    -0.39900
C1467       C  0.63155200  0.61981245  0.67056228    -0.12200
C1468       C  0.62462802  0.64776823  0.66308750     0.04800
C1469       C  0.63327740  0.66498247  0.62405963    -0.07500
C1470       C  0.64636803  0.65225617  0.59258892    -0.08300
C1471       C  0.65005825  0.62217869  0.59940390    -0.02800
C1472       C  0.64332554  0.60643742  0.63899025     0.04000
N1473       N  0.64571657  0.57519393  0.64721634     0.66500
H1474       H  0.62545809  0.60662342  0.70022399     0.15400
H1475       H  0.65075240  0.66386900  0.56212787     0.15100
N1476       N  0.62541803  0.69252917  0.61410117     0.74200
O1477       O  0.67310089  0.57892385  0.66604699    -0.39200
O1478       O  0.61709175  0.54495662  0.64805950    -0.39200
O1479       O  0.65112628  0.72451471  0.61107057    -0.39900
O1480       O  0.59597143  0.68384951  0.59637519    -0.39900
C1481       C  0.44316984  0.53035585  0.60073123    -0.12200
C1482       C  0.40930208  0.52692406  0.59490064     0.04800
C1483       C  0.39950576  0.54697938  0.62085391    -0.07500
C1484       C  0.42326889  0.56943278  0.65154830    -0.08300
C1485       C  0.45700243  0.57265222  0.65756216    -0.02800
C1486       C  0.46695899  0.55284454  0.63137269     0.04000
N1487       N  0.50138670  0.55570268  0.63420428     0.66500
H1488       H  0.45165227  0.51588254  0.58095215     0.15400
H1489       H  0.41477063  0.58384793  0.67138834     0.15100
N1490       N  0.36505244  0.54400006  0.61822220     0.74200
O1491       O  0.50370256  0.53109259  0.65252658    -0.39200
O1492       O  0.52517680  0.57493597  0.60801162    -0.39200
O1493       O  0.34179177  0.52533774  0.64515787    -0.39900
O1494       O  0.36262404  0.56853723  0.59987240    -0.39900
C1495       C  0.41677417  0.56666873  0.84734240    -0.12200
C1496       C  0.45238987  0.57382983  0.84632888     0.04800
C1497       C  0.46301249  0.55648206  0.87553133    -0.07500
C1498       C  0.43868782  0.53358963  0.90528825    -0.08300
C1499       C  0.40303119  0.52628394  0.90652924    -0.02800
C1500       C  0.39191315  0.54253453  0.87635862     0.04000
N1501       N  0.35520264  0.53324885  0.87239966     0.66500
H1502       H  0.40776182  0.57852913  0.82450855     0.15400
H1503       H  0.44803219  0.52154653  0.92748145     0.15100
N1504       N  0.49845903  0.56163318  0.87609031     0.74200
O1505       O  0.34605835  0.55484911  0.88588602    -0.39200
O1506       O  0.33608374  0.51092007  0.84480535    -0.39200
O1507       O  0.52003224  0.58114430  0.90406697    -0.39900
O1508       O  0.50355749  0.53837973  0.85887425    -0.39900
C1509       C  0.51799239  0.73250365  0.63064517    -0.12200
C1510       C  0.54880174  0.74557183  0.65563386     0.04800
C1511       C  0.57863950  0.77995082  0.64646285    -0.07500
C1512       C  0.57684674  0.80010792  0.61329452    -0.08300
C1513       C  0.54573276  0.78718676  0.58867368    -0.02800
C1514       C  0.51603171  0.75271054  0.59786325     0.04000
N1515       N  0.48332719  0.73713452  0.57458400     0.66500
H1516       H  0.49500658  0.70632777  0.63645421     0.15400
H1517       H  0.59971947  0.82636817  0.60759274     0.15100
N1518       N  0.61049236  0.79606467  0.67132581     0.74200
O1519       O  0.47822765  0.71431106  0.54703504    -0.39200
O1520       O  0.45634957  0.73658573  0.59045982    -0.39200
O1521       O  0.63852665  0.79780387  0.65698932    -0.39900
O1522       O  0.61378137  0.81818349  0.69896465    -0.39900
C1523       C  0.52404475  0.76067963  0.83721600    -0.12200
C1524       C  0.54847009  0.74847722  0.84170835     0.04800
C1525       C  0.57296933  0.76125968  0.87522572    -0.07500
C1526       C  0.57215829  0.78522241  0.90370831    -0.08300
C1527       C  0.54715885  0.79672735  0.89971339    -0.02800
C1528       C  0.52320187  0.78457160  0.86571411     0.04000
N1529       N  0.49859210  0.79693949  0.85848401     0.66500
H1530       H  0.50582182  0.75201320  0.81126947     0.15400
H1531       H  0.59014056  0.79365404  0.92987412     0.15100
N1532       N  0.59736288  0.74867954  0.88272627     0.74200
O1533       O  0.50774553  0.82297918  0.83394474    -0.39200
O1534       O  0.46554372  0.77562338  0.86499222    -0.39200
O1535       O  0.63039330  0.76962438  0.87568981    -0.39900
O1536       O  0.58823159  0.72309213  0.90794142    -0.39900
loop_ 
_geom_bond_atom_site_label_1 
_geom_bond_atom_site_label_2 
_geom_bond_distance 
_geom_bond_site_symmetry_2 
_ccdc_geom_bond_type 
Fe1          O17   2.058       .  S
Fe1           O7   2.042       .  S
Fe1          O14   2.061       .  S
Fe1           O6   2.040       .  S
Fe1          O12   1.980       .  S
Fe2           O5   2.065       .  S
Fe2           O9   2.082       .  S
Fe2          O13   2.082       .  S
Fe2          O18   2.076       .  S
Fe2          O12   1.969       .  S
Fe3          O21   2.068       .  S
Fe3           O8   2.073       .  S
Fe3          O15   2.069       .  S
Fe3           O4   2.073       .  S
Fe3          O12   1.989       .  S
O4           C11   1.269       .  A
O5           C19   1.271       .  A
O6           C11   1.264       .  A
O7           C10   1.265       .  A
O8           C20   1.270       .  A
O9           C22   1.274       .  A
C10          O15   1.268       .  A
C10         C700   1.461       .  S
C11         C686   1.459       .  S
O13          C16   1.272       .  A
O14          C16   1.266       .  A
C16         C728   1.488       .  S
O17          C22   1.265       .  A
O18          C20   1.275       .  A
C19          O21   1.267       .  A
C19         C742   1.483       .  S
C20         C756   1.494       .  S
C22         C717   1.493       .  S
Fe23         O39   2.062   1_556  S
Fe23         O29   2.061   1_556  S
Fe23        O804   2.055       .  S
Fe23        O796   2.035       .  S
Fe23        O802   1.961   1_556  S
Fe24         O35   2.079       .  S
Fe24         O40   2.039       .  S
Fe24        O795   2.055       .  S
Fe24        O799   2.072       .  S
Fe24         O34   1.977       .  S
Fe25         O30   2.058       .  S
Fe25         O26   2.088       .  S
Fe25        O811   2.088       .  S
Fe25        O805   2.075       .  S
Fe25         O34   1.984       .  S
O26          C33   1.272       .  A
O27        Fe792   2.059       .  S
O27          C41   1.273       .  A
O28        Fe791   2.048       .  S
O28          C33   1.266       .  A
O29          C32   1.266       .  A
O30          C42   1.269       .  A
O31        Fe792   2.080       .  S
O31          C44   1.270       .  A
C32          O37   1.269       .  A
C32         C644   1.473       .  S
C33         C630   1.469       .  S
O34        Fe791   1.967       .  S
O35          C38   1.267       .  A
O36        Fe791   2.057       .  S
O36          C38   1.269       .  A
O37        Fe793   2.071       .  S
C38         C731   1.492       .  S
O39          C44   1.273       .  A
O40          C42   1.264       .  A
C41          O43   1.274       .  A
C41         C672   1.493       .  S
C42         C661   1.474       .  S
O43        Fe793   2.091       .  S
C44         C714   1.492       .  S
Fe45         O61   2.055       .  S
Fe45         O51   2.037       .  S
Fe45         O58   2.059       .  S
Fe45         O50   2.050       .  S
Fe45         O56   1.961       .  S
Fe46         O49   2.069       .  S
Fe46         O53   2.065       .  S
Fe46         O57   2.083       .  S
Fe46         O62   2.075       .  S
Fe46         O56   1.969       .  S
Fe47         O65   2.078       .  S
Fe47         O52   2.089       .  S
Fe47         O59   2.093       .  S
Fe47         O48   2.080       .  S
Fe47         O56   1.976       .  S
O48          C55   1.272       .  A
O49          C63   1.268       .  A
O50          C55   1.262       .  A
O51          C54   1.270       .  A
O52          C64   1.274       .  A
O53          C66   1.270       .  A
C54          O59   1.272       .  A
C54         C619   1.468       .  S
C55         C602   1.473       .  S
O57          C60   1.271       .  A
O58          C60   1.273       .  A
C60         C577   1.482       .  S
O61          C66   1.263       .  A
O62          C64   1.274       .  A
C63          O65   1.273       .  A
C63         C675   1.487       .  S
C64         C658   1.490       .  S
C66         C591   1.486       .  S
Fe67         O83   2.039       .  S
Fe67         O73   2.044       .  S
Fe67        O848   2.056   1_554  S
Fe67        O840   2.055   1_554  S
Fe67        O846   1.969   1_554  S
Fe68         O79   2.071       .  S
Fe68         O84   2.062       .  S
Fe68        O839   2.066       .  S
Fe68        O843   2.068       .  S
Fe68         O78   1.979       .  S
Fe69         O74   2.085       .  S
Fe69         O70   2.082       .  S
Fe69        O855   2.077       .  S
Fe69        O849   2.093       .  S
Fe69         O78   1.970       .  S
O70          C77   1.272       .  A
O71        Fe836   2.074   1_554  S
O71          C85   1.269       .  A
O72        Fe835   2.061       .  S
O72          C77   1.265       .  A
O73          C76   1.265       .  A
O74          C86   1.275       .  A
O75        Fe836   2.071   1_554  S
O75          C88   1.267       .  A
C76          O81   1.270       .  A
C76         C532   1.464       .  S
C77         C518   1.479       .  S
O78        Fe835   1.967       .  S
O79          C82   1.273       .  A
O80        Fe835   2.061       .  S
O80          C82   1.269       .  A
O81        Fe837   2.081   1_554  S
C82         C549   1.487       .  S
O83          C88   1.266       .  A
O84          C86   1.268       .  A
C85          O87   1.272       .  A
C85         C745   1.487       .  S
C86         C759   1.492       .  S
O87        Fe837   2.067   1_554  S
C88         C563   1.478       .  S
Fe89        O105   2.068   1_556  S
Fe89         O95   2.038   1_556  S
Fe89        O870   2.047       .  S
Fe89        O862   2.056       .  S
Fe89        O868   1.962       .  S
Fe90        O101   2.094       .  S
Fe90        O106   2.047       .  S
Fe90        O861   2.065       .  S
Fe90        O865   2.057       .  S
Fe90        O100   1.955       .  S
Fe91         O96   2.106       .  S
Fe91         O92   2.059       .  S
Fe91        O877   2.064       .  S
Fe91        O871   2.106       .  S
Fe91        O100   1.957       .  S
O92          C99   1.268       .  A
O93        Fe858   2.049       .  S
O93         C107   1.268       .  A
O94        Fe857   2.084       .  S
O94          C99   1.270       .  A
O95          C98   1.264       .  A
O96         C108   1.282       .  A
O97        Fe858   2.077       .  S
O97         C110   1.271       .  A
C98         O103   1.275       .  A
C98         C616   1.479       .  S
C99         C605   1.469       .  S
O100       Fe857   1.937       .  S
O101        C104   1.273       .  A
O102       Fe857   2.036       .  S
O102        C104   1.267       .  A
O103       Fe859   2.079       .  S
C104        C490   1.473       .  S
O105        C110   1.274       .  A
O106        C108   1.268       .  A
C107        O109   1.267       .  A
C107        C479   1.489       .  S
C108        C465   1.490       .  S
O109       Fe859   2.076       .  S
C110        C504   1.491       .  S
Fe111       O127   2.052       .  S
Fe111       O117   2.048       .  S
Fe111       O124   2.074       .  S
Fe111       O116   2.047       .  S
Fe111       O122   1.961       .  S
Fe112       O115   2.046       .  S
Fe112       O119   2.072       .  S
Fe112       O123   2.073       .  S
Fe112       O128   2.064       .  S
Fe112       O122   1.975       .  S
Fe113       O131   2.079       .  S
Fe113       O118   2.079       .  S
Fe113       O125   2.075       .  S
Fe113       O114   2.095       .  S
Fe113       O122   1.987       .  S
O114        C121   1.275       .  A
O115        C129   1.264       .  A
O116        C121   1.267       .  A
O117        C120   1.268       .  A
O118        C130   1.270       .  A
O119        C132   1.273       .  A
C120        O125   1.267       .  A
C120        C535   1.478       .  S
C121        C521   1.470       .  S
O123        C126   1.266       .  A
O124        C126   1.273       .  A
C126        C434   1.497       .  S
O127        C132   1.265       .  A
O128        C130   1.274       .  A
C129        O131   1.273       .  A
C129        C476   1.486       .  S
C130        C462   1.492       .  S
C132        C448   1.480       .  S
Fe133       O149   2.049       .  S
Fe133       O139   2.042       .  S
Fe133       O146   2.069       .  S
Fe133       O138   2.044       .  S
Fe133       O144   1.961       .  S
Fe134       O137   2.042       .  S
Fe134       O141   2.095       .  S
Fe134       O145   2.051       .  S
Fe134       O150   2.092       .  S
Fe134       O144   1.956       .  S
Fe135       O153   2.079       .  S
Fe135       O140   2.078       .  S
Fe135       O147   2.078       .  S
Fe135       O136   2.104       .  S
Fe135       O144   1.962       .  S
O136        C143   1.277       .  A
O137        C151   1.265       .  A
O138        C143   1.269       .  A
O139        C142   1.265       .  A
O140        C152   1.276       .  A
O141        C154   1.279       .  A
C142        O147   1.268       .  A
C142        C395   1.476       .  S
C143        C378   1.468       .  S
O145        C148   1.266       .  A
O146        C148   1.266       .  A
C148        C493   1.474       .  S
O149        C154   1.266       .  A
O150        C152   1.274       .  A
C151        O153   1.274       .  A
C151        C406   1.480       .  S
C152        C420   1.502       .  S
C154        C507   1.490       .  S
Fe155       O171   2.047   1_556  S
Fe155       O161   2.031   1_556  S
Fe155       O936   2.049       .  S
Fe155       O928   2.044       .  S
Fe155       O934   1.972       .  S
Fe156       O167   2.100       .  S
Fe156       O172   2.060       .  S
Fe156       O927   2.072       .  S
Fe156       O931   2.077       .  S
Fe156       O166   1.971       .  S
Fe157       O162   2.069       .  S
Fe157       O158   2.071       .  S
Fe157       O943   2.077       .  S
Fe157       O937   2.075       .  S
Fe157       O166   1.989       .  S
O158        C165   1.268       .  A
O159       Fe924   2.068       .  S
O159        C173   1.273       .  A
O160       Fe923   2.058       .  S
O160        C165   1.265       .  A
O161        C164   1.264       .  A
O162        C174   1.268       .  A
O163       Fe924   2.078       .  S
O163        C176   1.269       .  A
C164        O169   1.267       .  A
C164        C336   1.473       .  S
C165        C325   1.469       .  S
O166       Fe923   1.973       .  S
O167        C170   1.278       .  A
O168       Fe923   2.056       .  S
O168        C170   1.267       .  A
O169       Fe925   2.079       .  S
C170        C437   1.499       .  S
O171        C176   1.268       .  A
O172        C174   1.270       .  A
C173        O175   1.269       .  A
C173        C350   1.491       .  S
C174        C367   1.481       .  S
O175       Fe925   2.071       .  S
C176        C451   1.480       .  S
Fe177       O193   2.045       .  S
Fe177       O183   2.048       .  S
Fe177       O958   2.066   1_554  S
Fe177       O950   2.052   1_554  S
Fe177       O956   1.966       .  S
Fe178       O189   2.079       .  S
Fe178       O194   2.057       .  S
Fe178       O949   2.041       .  S
Fe178       O953   2.082       .  S
Fe178       O188   1.970       .  S
Fe179       O184   2.100       .  S
Fe179       O180   2.071       .  S
Fe179       O965   2.071       .  S
Fe179       O959   2.084       .  S
Fe179       O188   1.992       .  S
O180        C187   1.270       .  A
O181       Fe946   2.047   1_554  S
O181        C195   1.269       .  A
O182       Fe945   2.055       .  S
O182        C187   1.265       .  A
O183        C186   1.268       .  A
O184        C196   1.275       .  A
O185       Fe946   2.079   1_554  S
O185        C198   1.267       .  A
C186        O191   1.270       .  A
C186        C703   1.463       .  S
C187        C689   1.469       .  S
O188       Fe945   1.965       .  S
O189        C192   1.270       .  A
O190       Fe945   2.063       .  S
O190        C192   1.274       .  A
O191       Fe947   2.078       .  S
C192        C297   1.492       .  S
O193        C198   1.265       .  A
O194        C196   1.272       .  A
C195        O197   1.268       .  A
C195        C409   1.482       .  S
C196        C423   1.496       .  S
O197       Fe947   2.070       .  S
C198        C308   1.489       .  S
Fe199       O215   2.065       .  S
Fe199       O205   2.038       .  S
Fe199       O212   2.052       .  S
Fe199       O204   2.051       .  S
Fe199       O210   1.970       .  S
Fe200       O203   2.070       .  S
Fe200       O207   2.062       .  S
Fe200       O211   2.066       .  S
Fe200       O216   2.059       .  S
Fe200       O210   1.978       .  S
Fe201       O219   2.085       .  S
Fe201       O206   2.072       .  S
Fe201       O213   2.094       .  S
Fe201       O202   2.089       .  S
Fe201       O210   1.976       .  S
O202        C209   1.272       .  A
O203        C217   1.268       .  A
O204        C209   1.270       .  A
O205        C208   1.263       .  A
O206        C218   1.272       .  A
O207        C220   1.270       .  A
C208        O213   1.272       .  A
C208        C647   1.468       .  S
C209        C633   1.483       .  S
O211        C214   1.270       .  A
O212        C214   1.264       .  A
C214        C294   1.486       .  S
O215        C220   1.269       .  A
O216        C218   1.267       .  A
C217        O219   1.276       .  A
C217        C353   1.497       .  S
C218        C364   1.484       .  S
C220        C311   1.480       .  S
Fe221       O237   2.053       .  S
Fe221       O227   2.046       .  S
Fe221      O1002   2.062   1_554  S
Fe221       O994   2.051   1_554  S
Fe221      O1000   1.967       .  S
Fe222       O233   2.065       .  S
Fe222       O238   2.056       .  S
Fe222       O993   2.062       .  S
Fe222       O997   2.065       .  S
Fe222       O232   1.977       .  S
Fe223       O228   2.066       .  S
Fe223       O224   2.071       .  S
Fe223      O1009   2.066       .  S
Fe223      O1003   2.059       .  S
Fe223       O232   1.992       .  S
O224        C231   1.272       .  A
O225       Fe990   2.064       .  S
O225        C239   1.269       .  A
O226       Fe989   2.068       .  S
O226        C231   1.271       .  A
O227        C230   1.267       .  A
O228        C240   1.264       .  A
O229       Fe990   2.076       .  S
O229        C242   1.266       .  A
C230        O235   1.270       .  A
C230        C392   1.460       .  S
C231        C381   1.472       .  S
O232       Fe989   1.972       .  S
O233        C236   1.272       .  A
O234       Fe989   2.066       .  S
O234        C236   1.269       .  A
O235       Fe991   2.076   1_554  S
C236        C574   1.480       .  S
O237        C242   1.267       .  A
O238        C240   1.270       .  A
C239        O241   1.274       .  A
C239        C283   1.484       .  S
C240        C266   1.488       .  S
O241       Fe991   2.075   1_554  S
C242        C588   1.489       .  S
Fe243       O259   2.040       .  S
Fe243       O249   2.052       .  S
Fe243       O256   2.063       .  S
Fe243       O248   2.052       .  S
Fe243       O254   1.973       .  S
Fe244       O247   2.059       .  S
Fe244       O251   2.060       .  S
Fe244       O255   2.071       .  S
Fe244       O260   2.047       .  S
Fe244       O254   1.980       .  S
Fe245       O263   2.078       .  S
Fe245       O250   2.074       .  S
Fe245       O257   2.079       .  S
Fe245       O246   2.077       .  S
Fe245       O254   1.989       .  S
O246        C253   1.269       .  A
O247        C261   1.271       .  A
O248        C253   1.263       .  A
O249        C252   1.269       .  A
O250        C262   1.273       .  A
O251        C264   1.267       .  A
C252        O257   1.272       .  A
C252        C339   1.463       .  S
C253        C322   1.472       .  S
O255        C258   1.269       .  A
O256        C258   1.275       .  A
C258        C546   1.489       .  S
O259        C264   1.260       .  A
O260        C262   1.265       .  A
C261        O263   1.269       .  A
C261        C280   1.482       .  S
C262        C269   1.483       .  S
C264        C560   1.479       .  S
C265        C266   1.402       .  A
C265        C270   1.390       .  A
C265        H272   1.079       .  S
C266        C267   1.418       .  A
C267        C268   1.402       .  A
C267        N274   1.427       .  S
C268        C269   1.403       .  A
C268        H273   1.079       .  S
C269        C270   1.414       .  A
C270        N271   1.426       .  S
N271        O275   1.262       .  A
N271        O276   1.262       .  A
N274        O278   1.262       .  A
N274        O277   1.262       .  A
C279        C280   1.401       .  A
C279        C284   1.395       .  A
C279        H286   1.078       .  S
C280        C281   1.415       .  A
C281        C282   1.404       .  A
C281        N288   1.428       .  S
C282        C283   1.405       .  A
C282        H287   1.077       .  S
C283        C284   1.414       .  A
C284        N285   1.428       .  S
N285        O289   1.262       .  A
N285        O290   1.262       .  A
N288        O292   1.262       .  A
N288        O291   1.262       .  A
C293        C294   1.405       .  A
C293        C298   1.401       .  A
C293        H300   1.072       .  S
C294        C295   1.414       .  A
C295        C296   1.397       .  A
C295        N302   1.428       .  S
C296        C297   1.406       .  A
C296        H301   1.071       .  S
C297        C298   1.418       .  A
C298        N299   1.428       .  S
N299        O303   1.262       .  A
N299        O304   1.262       .  A
N302        O306   1.262       .  A
N302        O305   1.262       .  A
C307        C308   1.407       .  A
C307        C312   1.394       .  A
C307        H314   1.077       .  S
C308        C309   1.415       .  A
C309        C310   1.403       .  A
C309        N316   1.427       .  S
C310        C311   1.405       .  A
C310        H315   1.077       .  S
C311        C312   1.410       .  A
C312        N313   1.429       .  S
N313        O317   1.262       .  A
N313        O318   1.262       .  A
N316        O320   1.262       .  A
N316        O319   1.262       .  A
C321        C322   1.398       .  A
C321        C326   1.398       .  A
C321        H328   1.081       .  S
C322        C323   1.415   1_565  A
C323        C324   1.400       .  A
C323        N330   1.429       .  S
C324        C325   1.399       .  A
C324        H329   1.081       .  S
C325        C326   1.410   1_545  A
C326        N327   1.427       .  S
N327        O331   1.262       .  A
N327        O332   1.262       .  A
N330        O334   1.262       .  A
N330        O333   1.262       .  A
C335        C336   1.404   1_565  A
C335        C340   1.391       .  A
C335        H342   1.073       .  S
C336        C337   1.411       .  A
C337        C338   1.404   1_545  A
C337        N344   1.427       .  S
C338        C339   1.403       .  A
C338        H343   1.075   1_565  S
C339        C340   1.405       .  A
C340        N341   1.428       .  S
N341        O345   1.262       .  A
N341        O346   1.262       .  A
N344        O348   1.262       .  A
N344        O347   1.262       .  A
C349        C350   1.402       .  A
C349        C354   1.399       .  A
C349        H356   1.079       .  S
C350        C351   1.416       .  A
C351        C352   1.403       .  A
C351        N358   1.428       .  S
C352        C353   1.405       .  A
C352        H357   1.079       .  S
C353        C354   1.420       .  A
C354        N355   1.428       .  S
N355        O359   1.262       .  A
N355        O360   1.262       .  A
N358        O362   1.262       .  A
N358        O361   1.262       .  A
C363        C364   1.405       .  A
C363        C368   1.399       .  A
C363        H370   1.080       .  S
C364        C365   1.415       .  A
C365        C366   1.398       .  A
C365        N372   1.429       .  S
C366        C367   1.403       .  A
C366        H371   1.080       .  S
C367        C368   1.412       .  A
C368        N369   1.428       .  S
N369        O373   1.262       .  A
N369        O374   1.262       .  A
N372        O376   1.262       .  A
N372        O375   1.262       .  A
C377        C378   1.398       .  A
C377        C382   1.398       .  A
C377        H384   1.079       .  S
C378        C379   1.412   1_655  A
C379        C380   1.401       .  A
C379        N386   1.428       .  S
C380        C381   1.400       .  A
C380        H385   1.079       .  S
C381        C382   1.411   1_455  A
C382        N383   1.428       .  S
N383        O387   1.262       .  A
N383        O388   1.262       .  A
N386        O390   1.262       .  A
N386        O389   1.262       .  A
C391        C392   1.402   1_655  A
C391        C396   1.403       .  A
C391        H398   1.075       .  S
C392        C393   1.403       .  A
C393        C394   1.392       .  A
C393        N400   1.429       .  S
C394        C395   1.406   1_455  A
C394        H399   1.072       .  S
C395        C396   1.412       .  A
C396        N397   1.428       .  S
N397        O401   1.262       .  A
N397        O402   1.262       .  A
N400        O404   1.262       .  A
N400        O403   1.262       .  A
C405        C406   1.404       .  A
C405        C410   1.401       .  A
C405        H412   1.078       .  S
C406        C407   1.414       .  A
C407        C408   1.392       .  A
C407        N414   1.429       .  S
C408        C409   1.403       .  A
C408        H413   1.078       .  S
C409        C410   1.414       .  A
C410        N411   1.427       .  S
N411        O415   1.262       .  A
N411        O416   1.262       .  A
N414        O418   1.262       .  A
N414        O417   1.262       .  A
C419        C420   1.410       .  A
C419        C424   1.409       .  A
C419        H426   1.073       .  S
C420        C421   1.417       .  A
C421        C422   1.400       .  A
C421        N428   1.428       .  S
C422        C423   1.405       .  A
C422        H427   1.074       .  S
C423        C424   1.415       .  A
C424        N425   1.428       .  S
N425        O429   1.262       .  A
N425        O430   1.262       .  A
N428        O432   1.262       .  A
N428        O431   1.262       .  A
C433        C434   1.403       .  A
C433        C438   1.396       .  A
C433        H440   1.073       .  S
C434        C435   1.419       .  A
C435        C436   1.409       .  A
C435        N442   1.428       .  S
C436        C437   1.408       .  A
C436        H441   1.072       .  S
C437        C438   1.418       .  A
C438        N439   1.427       .  S
N439        O443   1.262       .  A
N439        O444   1.262       .  A
N442        O446   1.262       .  A
N442        O445   1.262       .  A
C447        C448   1.404       .  A
C447        C452   1.399       .  A
C447        H454   1.075       .  S
C448        C449   1.415       .  A
C449        C450   1.396       .  A
C449        N456   1.430       .  S
C450        C451   1.405       .  A
C450        H455   1.075       .  S
C451        C452   1.411       .  A
C452        N453   1.427       .  S
N453        O457   1.262       .  A
N453        O458   1.262       .  A
N456        O460   1.262       .  A
N456        O459   1.262       .  A
C461        C462   1.404       .  A
C461        C466   1.394       .  A
C461        H468   1.072       .  S
C462        C463   1.417       .  A
C463        C464   1.406       .  A
C463        N470   1.428       .  S
C464        C465   1.406       .  A
C464        H469   1.071       .  S
C465        C466   1.416       .  A
C466        N467   1.429       .  S
N467        O471   1.262       .  A
N467        O472   1.262       .  A
N470        O474   1.262       .  A
N470        O473   1.262       .  A
C475        C476   1.405       .  A
C475        C480   1.403       .  A
C475        H482   1.075       .  S
C476        C477   1.415       .  A
C477        C478   1.394       .  A
C477        N484   1.430       .  S
C478        C479   1.405       .  A
C478        H483   1.075       .  S
C479        C480   1.415       .  A
C480        N481   1.427       .  S
N481        O485   1.262       .  A
N481        O486   1.262       .  A
N484        O488   1.262       .  A
N484        O487   1.262       .  A
C489        C490   1.402       .  A
C489        C494   1.394       .  A
C489        H496   1.079       .  S
C490        C491   1.412       .  A
C491        C492   1.398       .  A
C491        N498   1.428       .  S
C492        C493   1.403       .  A
C492        H497   1.079       .  S
C493        C494   1.413       .  A
C494        N495   1.429       .  S
N495        O499   1.262       .  A
N495        O500   1.262       .  A
N498        O502   1.262       .  A
N498        O501   1.262       .  A
C503        C504   1.406       .  A
C503        C508   1.399       .  A
C503        H510   1.076       .  S
C504        C505   1.416       .  A
C505        C506   1.401       .  A
C505        N512   1.428       .  S
C506        C507   1.405       .  A
C506        H511   1.076       .  S
C507        C508   1.417       .  A
C508        N509   1.429       .  S
N509        O513   1.262       .  A
N509        O514   1.262       .  A
N512        O516   1.262       .  A
N512        O515   1.262       .  A
C517        C518   1.402       .  A
C517        C522   1.403       .  A
C517        H524   1.072       .  S
C518        C519   1.414   1_565  A
C519        C520   1.400       .  A
C519        N526   1.428       .  S
C520        C521   1.398       .  A
C520        H525   1.072       .  S
C521        C522   1.411   1_545  A
C522        N523   1.428       .  S
N523        O527   1.262       .  A
N523        O528   1.262       .  A
N526        O530   1.262       .  A
N526        O529   1.262       .  A
C531        C532   1.403       .  A
C531        C536   1.405   1_565  A
C531        H538   1.075       .  S
C532        C533   1.404       .  A
C533        C534   1.391       .  A
C533        N540   1.427       .  S
C534        C535   1.403   1_565  A
C534        H539   1.075       .  S
C535        C536   1.414       .  A
C536        N537   1.428       .  S
N537        O541   1.262       .  A
N537        O542   1.262       .  A
N540        O544   1.261       .  A
N540        O543   1.262       .  A
C545        C546   1.403       .  A
C545        C550   1.393       .  A
C545        H552   1.077       .  S
C546        C547   1.419       .  A
C547        C548   1.402       .  A
C547        N554   1.429       .  S
C548        C549   1.407       .  A
C548        H553   1.077       .  S
C549        C550   1.413       .  A
C550        N551   1.426       .  S
N551        O555   1.262       .  A
N551        O556   1.262       .  A
N554        O558   1.261       .  A
N554        O557   1.262       .  A
C559        C560   1.405       .  A
C559        C564   1.400       .  A
C559        H566   1.076       .  S
C560        C561   1.415       .  A
C561        C562   1.389       .  A
C561        N568   1.430       .  S
C562        C563   1.403       .  A
C562        H567   1.077       .  S
C563        C564   1.411       .  A
C564        N565   1.427       .  S
N565        O569   1.262       .  A
N565        O570   1.262       .  A
N568        O572   1.262       .  A
N568        O571   1.263       .  A
C573        C574   1.402       .  A
C573        C578   1.400       .  A
C573        H580   1.076       .  S
C574        C575   1.414       .  A
C575        C576   1.398       .  A
C575        N582   1.428       .  S
C576        C577   1.402       .  A
C576        H581   1.076       .  S
C577        C578   1.416       .  A
C578        N579   1.428       .  S
N579        O583   1.262       .  A
N579        O584   1.262       .  A
N582        O586   1.262       .  A
N582        O585   1.262       .  A
C587        C588   1.405       .  A
C587        C592   1.394       .  A
C587        H594   1.073       .  S
C588        C589   1.414       .  A
C589        C590   1.403       .  A
C589        N596   1.427       .  S
C590        C591   1.406       .  A
C590        H595   1.072       .  S
C591        C592   1.416       .  A
C592        N593   1.430       .  S
N593        O597   1.262       .  A
N593        O598   1.262       .  A
N596        O600   1.262       .  A
N596        O599   1.262       .  A
C601        C602   1.397       .  A
C601        C606   1.400       .  A
C601        H608   1.078       .  S
C602        C603   1.415   1_455  A
C603        C604   1.395       .  A
C603        N610   1.423       .  S
C604        C605   1.392       .  A
C604        H609   1.079       .  S
C605        C606   1.412   1_655  A
C606        N607   1.423       .  S
N607        O611   1.262       .  A
N607        O612   1.259       .  A
N610        O614   1.262       .  A
N610        O613   1.261       .  A
C615        C616   1.403       .  A
C615        C620   1.403       .  A
C615        H622   1.072       .  S
C616        C617   1.417   1_655  A
C617        C618   1.389       .  A
C617        N624   1.428       .  S
C618        C619   1.394       .  A
C618        H623   1.074       .  S
C619        C620   1.410   1_455  A
C620        N621   1.423       .  S
N621        O625   1.258       .  A
N621        O626   1.262       .  A
N624        O628   1.261       .  A
N624        O627   1.262       .  A
C629        C630   1.404       .  A
C629        C634   1.407       .  A
C629        H636   1.072       .  S
C630        C631   1.405       .  A
C631        C632   1.395       .  A
C631        N638   1.428       .  S
C632        C633   1.405       .  A
C632        H637   1.069       .  S
C633        C634   1.413       .  A
C634        N635   1.427       .  S
N635        O639   1.262       .  A
N635        O640   1.262       .  A
N638        O642   1.262       .  A
N638        O641   1.262       .  A
C643        C644   1.399       .  A
C643        C648   1.401       .  A
C643        H650   1.079       .  S
C644        C645   1.413       .  A
C645        C646   1.399       .  A
C645        N652   1.428       .  S
C646        C647   1.397       .  A
C646        H651   1.080       .  S
C647        C648   1.413       .  A
C648        N649   1.428       .  S
N649        O653   1.262       .  A
N649        O654   1.262       .  A
N652        O656   1.262       .  A
N652        O655   1.262       .  A
C657        C658   1.408       .  A
C657        C662   1.401       .  A
C657        H664   1.089       .  S
C658        C659   1.419       .  A
C659        C660   1.397       .  A
C659        N666   1.426       .  S
C660        C661   1.396       .  A
C660        H665   1.081       .  S
C661        C662   1.412       .  A
C662        N663   1.432       .  S
N663        O667   1.262       .  A
N663        O668   1.263       .  A
N666        O670   1.262       .  A
N666        O669   1.262       .  A
C671        C672   1.407       .  A
C671        C676   1.399       .  A
C671        H678   1.075       .  S
C672        C673   1.415       .  A
C673        C674   1.404       .  A
C673        N680   1.427       .  S
C674        C675   1.404       .  A
C674        H679   1.074       .  S
C675        C676   1.414       .  A
C676        N677   1.429       .  S
N677        O681   1.262       .  A
N677        O682   1.262       .  A
N680        O684   1.262       .  A
N680        O683   1.262       .  A
C685        C686   1.397       .  A
C685        C690   1.397       .  A
C685        H692   1.073       .  S
C686        C687   1.408       .  A
C687        C688   1.398       .  A
C687        N694   1.427       .  S
C688        C689   1.400       .  A
C688        H693   1.073       .  S
C689        C690   1.413       .  A
C690        N691   1.428       .  S
N691        O695   1.262       .  A
N691        O696   1.262       .  A
N694        O698   1.262       .  A
N694        O697   1.262       .  A
C699        C700   1.403       .  A
C699        C704   1.399       .  A
C699        H706   1.069       .  S
C700        C701   1.405       .  A
C701        C702   1.397       .  A
C701        N708   1.428       .  S
C702        C703   1.401       .  A
C702        H707   1.067       .  S
C703        C704   1.407       .  A
C704        N705   1.428       .  S
N705        O709   1.262       .  A
N705        O710   1.262       .  A
N708        O712   1.262       .  A
N708        O711   1.262       .  A
C713        C714   1.404       .  A
C713        C718   1.398       .  A
C713        H720   1.080       .  S
C714        C715   1.417       .  A
C715        C716   1.402       .  A
C715        N722   1.428       .  S
C716        C717   1.405       .  A
C716        H721   1.080       .  S
C717        C718   1.418       .  A
C718        N719   1.429       .  S
N719        O723   1.262       .  A
N719        O724   1.262       .  A
N722        O726   1.262       .  A
N722        O725   1.262       .  A
C727        C728   1.406       .  A
C727        C732   1.407       .  A
C727        H734   1.074       .  S
C728        C729   1.413       .  A
C729        C730   1.396       .  A
C729        N736   1.428       .  S
C730        C731   1.405       .  A
C730        H735   1.074       .  S
C731        C732   1.417       .  A
C732        N733   1.428       .  S
N733        O737   1.262       .  A
N733        O738   1.262       .  A
N736        O740   1.262       .  A
N736        O739   1.262       .  A
C741        C742   1.403       .  A
C741        C746   1.400       .  A
C741        H748   1.074       .  S
C742        C743   1.413       .  A
C743        C744   1.400       .  A
C743        N750   1.428       .  S
C744        C745   1.405       .  A
C744        H749   1.074       .  S
C745        C746   1.415       .  A
C746        N747   1.428       .  S
N747        O751   1.262       .  A
N747        O752   1.262       .  A
N750        O754   1.262       .  A
N750        O753   1.262       .  A
C755        C756   1.406       .  A
C755        C760   1.401       .  A
C755        H762   1.075       .  S
C756        C757   1.417       .  A
C757        C758   1.403       .  A
C757        N764   1.428       .  S
C758        C759   1.405       .  A
C758        H763   1.075       .  S
C759        C760   1.416       .  A
C760        N761   1.429       .  S
N761        O765   1.262       .  A
N761        O766   1.262       .  A
N764        O768   1.262       .  A
N764        O767   1.262       .  A
Fe769       O785   2.057       .  S
Fe769       O775   2.032       .  S
Fe769       O782   2.052       .  S
Fe769       O774   2.041       .  S
Fe769       O780   1.973       .  S
Fe770       O773   2.070       .  S
Fe770       O777   2.079       .  S
Fe770       O781   2.087       .  S
Fe770       O786   2.066       .  S
Fe770       O780   1.972       .  S
Fe771       O789   2.072       .  S
Fe771       O776   2.070       .  S
Fe771       O783   2.077       .  S
Fe771       O772   2.078       .  S
Fe771       O780   1.992       .  S
O772        C779   1.269       .  A
O773        C787   1.272       .  A
O774        C779   1.264       .  A
O775        C778   1.266       .  A
O776        C788   1.270       .  A
O777        C790   1.274       .  A
C778        O783   1.269       .  A
C778       C1468   1.472       .  S
C779       C1454   1.464       .  S
O781        C784   1.273       .  A
O782        C784   1.264       .  A
C784       C1496   1.487       .  S
O785        C790   1.265       .  A
O786        C788   1.273       .  A
C787        O789   1.267       .  A
C787       C1510   1.492       .  S
C788       C1524   1.478       .  S
C790       C1485   1.488       .  S
Fe791       O807   2.070       .  S
Fe791       O797   2.064       .  S
Fe792       O803   2.077   1_554  S
Fe792       O808   2.043   1_554  S
Fe792       O802   1.975       .  S
Fe793       O798   2.066   1_554  S
Fe793       O794   2.087   1_554  S
Fe793       O802   1.986       .  S
O794        C801   1.272       .  A
O795        C809   1.271       .  A
O796        C801   1.265       .  A
O797        C800   1.267       .  A
O798        C810   1.268       .  A
O799        C812   1.269       .  A
C800        O805   1.271       .  A
C800       C1412   1.474       .  S
C801       C1398   1.465       .  S
O803        C806   1.267       .  A
O804        C806   1.268       .  A
C806       C1499   1.490       .  S
O807        C812   1.273       .  A
O808        C810   1.265       .  A
C809        O811   1.272       .  A
C809       C1440   1.490       .  S
C810       C1429   1.474       .  S
C812       C1482   1.489       .  S
Fe813       O829   2.051       .  S
Fe813       O819   2.039       .  S
Fe813       O826   2.057       .  S
Fe813       O818   2.038       .  S
Fe813       O824   1.964       .  S
Fe814       O817   2.067       .  S
Fe814       O821   2.080       .  S
Fe814       O825   2.074       .  S
Fe814       O830   2.067       .  S
Fe814       O824   1.974       .  S
Fe815       O833   2.079       .  S
Fe815       O820   2.087       .  S
Fe815       O827   2.088       .  S
Fe815       O816   2.081       .  S
Fe815       O824   1.982       .  S
O816        C823   1.274       .  A
O817        C831   1.268       .  A
O818        C823   1.262       .  A
O819        C822   1.270       .  A
O820        C832   1.272       .  A
O821        C834   1.272       .  A
C822        O827   1.270       .  A
C822       C1387   1.469       .  S
C823       C1370   1.472       .  S
O825        C828   1.269       .  A
O826        C828   1.272       .  A
C828       C1345   1.480       .  S
O829        C834   1.263       .  A
O830        C832   1.272       .  A
C831        O833   1.276       .  A
C831       C1443   1.494       .  S
C832       C1426   1.487       .  S
C834       C1359   1.482       .  S
Fe835       O851   2.048       .  S
Fe835       O841   2.046       .  S
Fe836       O847   2.068       .  S
Fe836       O852   2.057       .  S
Fe836       O846   1.984       .  S
Fe837       O842   2.070       .  S
Fe837       O838   2.081       .  S
Fe837       O846   1.979       .  S
O838        C845   1.272       .  A
O839        C853   1.268       .  A
O840        C845   1.266       .  A
O841        C844   1.266       .  A
O842        C854   1.272       .  A
O843        C856   1.265       .  A
C844        O849   1.274       .  A
C844       C1300   1.469       .  S
C845       C1286   1.481       .  S
O847        C850   1.271       .  A
O848        C850   1.267       .  A
C850       C1317   1.478       .  S
O851        C856   1.267       .  A
O852        C854   1.267       .  A
C853        O855   1.274       .  A
C853       C1513   1.494       .  S
C854       C1527   1.475       .  S
C856       C1331   1.479       .  S
Fe857       O873   2.081       .  S
Fe857       O863   2.013       .  S
Fe858       O869   2.069   1_554  S
Fe858       O874   2.062   1_554  S
Fe858       O868   1.986   1_554  S
Fe859       O864   2.083   1_554  S
Fe859       O860   2.070   1_554  S
Fe859       O868   1.992   1_554  S
O860        C867   1.266       .  A
O861        C875   1.273       .  A
O862        C867   1.268       .  A
O863        C866   1.263       .  A
O864        C876   1.277       .  A
O865        C878   1.266       .  A
C866        O871   1.279       .  A
C866       C1384   1.469       .  S
C867       C1373   1.465       .  S
O869        C872   1.264       .  A
O870        C872   1.265       .  A
C872       C1258   1.475       .  S
O873        C878   1.274       .  A
O874        C876   1.270       .  A
C875        O877   1.267       .  A
C875       C1247   1.487       .  S
C876       C1233   1.482       .  S
C878       C1272   1.490       .  S
Fe879       O895   2.058       .  S
Fe879       O885   2.061       .  S
Fe879       O892   2.082       .  S
Fe879       O884   2.050       .  S
Fe879       O890   1.949       .  S
Fe880       O883   2.040       .  S
Fe880       O887   2.079       .  S
Fe880       O891   2.056       .  S
Fe880       O896   2.074       .  S
Fe880       O890   1.969       .  S
Fe881       O899   2.080       .  S
Fe881       O886   2.078       .  S
Fe881       O893   2.076       .  S
Fe881       O882   2.097       .  S
Fe881       O890   1.977       .  S
O882        C889   1.274       .  A
O883        C897   1.263       .  A
O884        C889   1.270       .  A
O885        C888   1.270       .  A
O886        C898   1.271       .  A
O887        C900   1.274       .  A
C888        O893   1.268       .  A
C888       C1303   1.481       .  S
C889       C1289   1.471       .  S
O891        C894   1.263       .  A
O892        C894   1.274       .  A
C894       C1202   1.486       .  S
O895        C900   1.267       .  A
O896        C898   1.276       .  A
C897        O899   1.274       .  A
C897       C1244   1.481       .  S
C898       C1230   1.493       .  S
C900       C1216   1.479       .  S
Fe901       O917   2.055       .  S
Fe901       O907   2.048       .  S
Fe901       O914   2.068       .  S
Fe901       O906   2.048       .  S
Fe901       O912   1.962       .  S
Fe902       O905   2.049       .  S
Fe902       O909   2.077       .  S
Fe902       O913   2.058       .  S
Fe902       O918   2.082       .  S
Fe902       O912   1.963       .  S
Fe903       O921   2.069       .  S
Fe903       O908   2.072       .  S
Fe903       O915   2.065       .  S
Fe903       O904   2.097       .  S
Fe903       O912   1.971       .  S
O904        C911   1.274       .  A
O905        C919   1.265       .  A
O906        C911   1.269       .  A
O907        C910   1.267       .  A
O908        C920   1.274       .  A
O909        C922   1.274       .  A
C910        O915   1.265       .  A
C910       C1163   1.467       .  S
C911       C1146   1.469       .  S
O913        C916   1.268       .  A
O914        C916   1.267       .  A
C916       C1261   1.482       .  S
O917        C922   1.267       .  A
O918        C920   1.272       .  A
C919        O921   1.271       .  A
C919       C1174   1.483       .  S
C920       C1188   1.497       .  S
C922       C1275   1.489       .  S
Fe923       O939   2.055       .  S
Fe923       O929   2.036       .  S
Fe924       O935   2.094   1_554  S
Fe924       O940   2.063   1_554  S
Fe924       O934   1.975   1_554  S
Fe925       O930   2.078   1_554  S
Fe925       O926   2.096   1_554  S
Fe925       O934   1.995   1_554  S
O926        C933   1.274       .  A
O927        C941   1.274       .  A
O928        C933   1.266       .  A
O929        C932   1.264       .  A
O930        C942   1.271       .  A
O931        C944   1.267       .  A
C932        O937   1.269       .  A
C932       C1104   1.458       .  S
C933       C1093   1.470       .  S
O935        C938   1.275       .  A
O936        C938   1.263       .  A
C938       C1205   1.496       .  S
O939        C944   1.266       .  A
O940        C942   1.272       .  A
C941        O943   1.270       .  A
C941       C1118   1.492       .  S
C942       C1135   1.483       .  S
C944       C1219   1.482       .  S
Fe945       O961   2.048       .  S
Fe945       O951   2.043       .  S
Fe946       O957   2.082       .  S
Fe946       O962   2.051       .  S
Fe946       O956   1.977   1_556  S
Fe947       O952   2.086   1_554  S
Fe947       O948   2.080   1_554  S
Fe947       O956   1.993       .  S
O948        C955   1.271       .  A
O949        C963   1.269       .  A
O950        C955   1.264       .  A
O951        C954   1.267       .  A
O952        C964   1.272       .  A
O953        C966   1.267       .  A
C954        O959   1.272       .  A
C954       C1471   1.463       .  S
C955       C1457   1.474       .  S
O957        C960   1.271       .  A
O958        C960   1.274       .  A
C960       C1065   1.494       .  S
O961        C966   1.265       .  A
O962        C964   1.270       .  A
C963        O965   1.267       .  A
C963       C1177   1.485       .  S
C964       C1191   1.491       .  S
C966       C1076   1.493       .  S
Fe967       O983   2.065       .  S
Fe967       O973   2.041       .  S
Fe967       O980   2.058       .  S
Fe967       O972   2.039       .  S
Fe967       O978   1.980       .  S
Fe968       O971   2.060       .  S
Fe968       O975   2.069       .  S
Fe968       O979   2.069       .  S
Fe968       O984   2.065       .  S
Fe968       O978   1.983       .  S
Fe969       O987   2.084       .  S
Fe969       O974   2.075       .  S
Fe969       O981   2.090       .  S
Fe969       O970   2.092       .  S
Fe969       O978   1.986       .  S
O970        C977   1.271       .  A
O971        C985   1.267       .  A
O972        C977   1.269       .  A
O973        C976   1.263       .  A
O974        C986   1.273       .  A
O975        C988   1.271       .  A
C976        O981   1.273       .  A
C976       C1415   1.469       .  S
C977       C1401   1.483       .  S
O979        C982   1.271       .  A
O980        C982   1.265       .  A
C982       C1062   1.491       .  S
O983        C988   1.268       .  A
O984        C986   1.269       .  A
C985        O987   1.275       .  A
C985       C1121   1.493       .  S
C986       C1132   1.486       .  S
C988       C1079   1.487       .  S
Fe989      O1005   2.052       .  S
Fe989       O995   2.043       .  S
Fe990      O1001   2.075   1_554  S
Fe990      O1006   2.051   1_554  S
Fe990      O1000   1.973       .  S
Fe991       O996   2.075       .  S
Fe991       O992   2.079       .  S
Fe991      O1000   1.978   1_556  S
O992        C999   1.271       .  A
O993       C1007   1.269       .  A
O994        C999   1.264       .  A
O995        C998   1.263       .  A
O996       C1008   1.269       .  A
O997       C1010   1.265       .  A
C998       O1003   1.263       .  A
C998       C1160   1.456       .  S
C999       C1149   1.479       .  S
O1001      C1004   1.274       .  A
O1002      C1004   1.268       .  A
C1004      C1342   1.483       .  S
O1005      C1010   1.268       .  A
O1006      C1008   1.270       .  A
C1007      O1009   1.273       .  A
C1007      C1051   1.485       .  S
C1008      C1034   1.488       .  S
C1010      C1356   1.475       .  S
Fe1011     O1027   2.060       .  S
Fe1011     O1017   2.036       .  S
Fe1011     O1024   2.065       .  S
Fe1011     O1016   2.066       .  S
Fe1011     O1022   1.960       .  S
Fe1012     O1015   2.056       .  S
Fe1012     O1019   2.053       .  S
Fe1012     O1023   2.072       .  S
Fe1012     O1028   2.048       .  S
Fe1012     O1022   1.973       .  S
Fe1013     O1031   2.068       .  S
Fe1013     O1018   2.090       .  S
Fe1013     O1025   2.089       .  S
Fe1013     O1014   2.078       .  S
Fe1013     O1022   1.981       .  S
O1014      C1021   1.273       .  A
O1015      C1029   1.271       .  A
O1016      C1021   1.268       .  A
O1017      C1020   1.266       .  A
O1018      C1030   1.276       .  A
O1019      C1032   1.266       .  A
C1020      O1025   1.271       .  A
C1020      C1107   1.467       .  S
C1021      C1090   1.477       .  S
O1023      C1026   1.268       .  A
O1024      C1026   1.273       .  A
C1026      C1314   1.483       .  S
O1027      C1032   1.266       .  A
O1028      C1030   1.264       .  A
C1029      O1031   1.267       .  A
C1029      C1048   1.489       .  S
C1030      C1037   1.490       .  S
C1032      C1328   1.469       .  S
C1033      C1034   1.404       .  A
C1033      C1038   1.395       .  A
C1033      H1040   1.079       .  S
C1034      C1035   1.415       .  A
C1035      C1036   1.402       .  A
C1035      N1042   1.427       .  S
C1036      C1037   1.406       .  A
C1036      H1041   1.078       .  S
C1037      C1038   1.418       .  A
C1038      N1039   1.429       .  S
N1039      O1043   1.262       .  A
N1039      O1044   1.262       .  A
N1042      O1046   1.262       .  A
N1042      O1045   1.262       .  A
C1047      C1048   1.405       .  A
C1047      C1052   1.392       .  A
C1047      H1054   1.076       .  S
C1048      C1049   1.416       .  A
C1049      C1050   1.401       .  A
C1049      N1056   1.426       .  S
C1050      C1051   1.405       .  A
C1050      H1055   1.076       .  S
C1051      C1052   1.414       .  A
C1052      N1053   1.428       .  S
N1053      O1057   1.262       .  A
N1053      O1058   1.262       .  A
N1056      O1060   1.262       .  A
N1056      O1059   1.260       .  A
C1061      C1062   1.405       .  A
C1061      C1066   1.401       .  A
C1061      H1068   1.076       .  S
C1062      C1063   1.417       .  A
C1063      C1064   1.399       .  A
C1063      N1070   1.429       .  S
C1064      C1065   1.406       .  A
C1064      H1069   1.076       .  S
C1065      C1066   1.417       .  A
C1066      N1067   1.428       .  S
N1067      O1071   1.262       .  A
N1067      O1072   1.262       .  A
N1070      O1074   1.262       .  A
N1070      O1073   1.262       .  A
C1075      C1076   1.408       .  A
C1075      C1080   1.396       .  A
C1075      H1082   1.077       .  S
C1076      C1077   1.415       .  A
C1077      C1078   1.404       .  A
C1077      N1084   1.427       .  S
C1078      C1079   1.406       .  A
C1078      H1083   1.077       .  S
C1079      C1080   1.412       .  A
C1080      N1081   1.429       .  S
N1081      O1085   1.262       .  A
N1081      O1086   1.262       .  A
N1084      O1088   1.262       .  A
N1084      O1087   1.262       .  A
C1089      C1090   1.400       .  A
C1089      C1094   1.401       .  A
C1089      H1096   1.080       .  S
C1090      C1091   1.415   1_565  A
C1091      C1092   1.400       .  A
C1091      N1098   1.428       .  S
C1092      C1093   1.397       .  A
C1092      H1097   1.081       .  S
C1093      C1094   1.412   1_545  A
C1094      N1095   1.427       .  S
N1095      O1099   1.262       .  A
N1095      O1100   1.262       .  A
N1098      O1102   1.262       .  A
N1098      O1101   1.262       .  A
C1103      C1104   1.400   1_565  A
C1103      C1108   1.402       .  A
C1103      H1110   1.076       .  S
C1104      C1105   1.405       .  A
C1105      C1106   1.391       .  A
C1105      N1112   1.428       .  S
C1106      C1107   1.400   1_545  A
C1106      H1111   1.075       .  S
C1107      C1108   1.410       .  A
C1108      N1109   1.424       .  S
N1109      O1113   1.261       .  A
N1109      O1114   1.262       .  A
N1112      O1116   1.262       .  A
N1112      O1115   1.262       .  A
C1117      C1118   1.403       .  A
C1117      C1122   1.398       .  A
C1117      H1124   1.078       .  S
C1118      C1119   1.417       .  A
C1119      C1120   1.404       .  A
C1119      N1126   1.427       .  S
C1120      C1121   1.405       .  A
C1120      H1125   1.079       .  S
C1121      C1122   1.418       .  A
C1122      N1123   1.428       .  S
N1123      O1127   1.262       .  A
N1123      O1128   1.262       .  A
N1126      O1130   1.262       .  A
N1126      O1129   1.262       .  A
C1131      C1132   1.404       .  A
C1131      C1136   1.403       .  A
C1131      H1138   1.080       .  S
C1132      C1133   1.415       .  A
C1133      C1134   1.397       .  A
C1133      N1140   1.427       .  S
C1134      C1135   1.401       .  A
C1134      H1139   1.080       .  S
C1135      C1136   1.415       .  A
C1136      N1137   1.428       .  S
N1137      O1141   1.262       .  A
N1137      O1142   1.262       .  A
N1140      O1144   1.261       .  A
N1140      O1143   1.262       .  A
C1145      C1146   1.396       .  A
C1145      C1150   1.396       .  A
C1145      H1152   1.079       .  S
C1146      C1147   1.412       .  A
C1147      C1148   1.403   1_655  A
C1147      N1154   1.427   1_655  S
C1148      C1149   1.403       .  A
C1148      H1153   1.078       .  S
C1149      C1150   1.415   1_455  A
C1150      N1151   1.428       .  S
N1151      O1155   1.262       .  A
N1151      O1156   1.262       .  A
N1154      O1158   1.262       .  A
N1154      O1157   1.262       .  A
C1159      C1160   1.400   1_655  A
C1159      C1164   1.399       .  A
C1159      H1166   1.076       .  S
C1160      C1161   1.403       .  A
C1161      C1162   1.392       .  A
C1161      N1168   1.428       .  S
C1162      C1163   1.403   1_455  A
C1162      H1167   1.074       .  S
C1163      C1164   1.410       .  A
C1164      N1165   1.428       .  S
N1165      O1169   1.262       .  A
N1165      O1170   1.262       .  A
N1168      O1172   1.261       .  A
N1168      O1171   1.262       .  A
C1173      C1174   1.407       .  A
C1173      C1178   1.402       .  A
C1173      H1180   1.078       .  S
C1174      C1175   1.413       .  A
C1175      C1176   1.389       .  A
C1175      N1182   1.429       .  S
C1176      C1177   1.405       .  A
C1176      H1181   1.078       .  S
C1177      C1178   1.415       .  A
C1178      N1179   1.428       .  S
N1179      O1183   1.262       .  A
N1179      O1184   1.262       .  A
N1182      O1186   1.262       .  A
N1182      O1185   1.262       .  A
C1187      C1188   1.409       .  A
C1187      C1192   1.405       .  A
C1187      H1194   1.074       .  S
C1188      C1189   1.416       .  A
C1189      C1190   1.397       .  A
C1189      N1196   1.428       .  S
C1190      C1191   1.405       .  A
C1190      H1195   1.075       .  S
C1191      C1192   1.415       .  A
C1192      N1193   1.428       .  S
N1193      O1197   1.262       .  A
N1193      O1198   1.262       .  A
N1196      O1200   1.262       .  A
N1196      O1199   1.262       .  A
C1201      C1202   1.398       .  A
C1201      C1206   1.394       .  A
C1201      H1208   1.073       .  S
C1202      C1203   1.417       .  A
C1203      C1204   1.407       .  A
C1203      N1210   1.428       .  S
C1204      C1205   1.407       .  A
C1204      H1209   1.072       .  S
C1205      C1206   1.420       .  A
C1206      N1207   1.427       .  S
N1207      O1211   1.262       .  A
N1207      O1212   1.262       .  A
N1210      O1214   1.262       .  A
N1210      O1213   1.262       .  A
C1215      C1216   1.404       .  A
C1215      C1220   1.402       .  A
C1215      H1222   1.075       .  S
C1216      C1217   1.412       .  A
C1217      C1218   1.397       .  A
C1217      N1224   1.429       .  S
C1218      C1219   1.404       .  A
C1218      H1223   1.075       .  S
C1219      C1220   1.413       .  A
C1220      N1221   1.428       .  S
N1221      O1225   1.262       .  A
N1221      O1226   1.262       .  A
N1224      O1228   1.262       .  A
N1224      O1227   1.262       .  A
C1229      C1230   1.406       .  A
C1229      C1234   1.397       .  A
C1229      H1236   1.071       .  S
C1230      C1231   1.418       .  A
C1231      C1232   1.405       .  A
C1231      N1238   1.428       .  S
C1232      C1233   1.403       .  A
C1232      H1237   1.071       .  S
C1233      C1234   1.412       .  A
C1234      N1235   1.429       .  S
N1235      O1239   1.262       .  A
N1235      O1240   1.262       .  A
N1238      O1242   1.262       .  A
N1238      O1241   1.262       .  A
C1243      C1244   1.403       .  A
C1243      C1248   1.400       .  A
C1243      H1250   1.075       .  S
C1244      C1245   1.414       .  A
C1245      C1246   1.393       .  A
C1245      N1252   1.430       .  S
C1246      C1247   1.406       .  A
C1246      H1251   1.075       .  S
C1247      C1248   1.416       .  A
C1248      N1249   1.427       .  S
N1249      O1253   1.262       .  A
N1249      O1254   1.262       .  A
N1252      O1256   1.262       .  A
N1252      O1255   1.262       .  A
C1257      C1258   1.400       .  A
C1257      C1262   1.393       .  A
C1257      H1264   1.078       .  S
C1258      C1259   1.412       .  A
C1259      C1260   1.402       .  A
C1259      N1266   1.428       .  S
C1260      C1261   1.406       .  A
C1260      H1265   1.077       .  S
C1261      C1262   1.414       .  A
C1262      N1263   1.428       .  S
N1263      O1267   1.262       .  A
N1263      O1268   1.262       .  A
N1266      O1270   1.262       .  A
N1266      O1269   1.262       .  A
C1271      C1272   1.406       .  A
C1271      C1276   1.397       .  A
C1271      H1278   1.076       .  S
C1272      C1273   1.416       .  A
C1273      C1274   1.400       .  A
C1273      N1280   1.428       .  S
C1274      C1275   1.406       .  A
C1274      H1279   1.075       .  S
C1275      C1276   1.415       .  A
C1276      N1277   1.428       .  S
N1277      O1281   1.262       .  A
N1277      O1282   1.262       .  A
N1280      O1284   1.262       .  A
N1280      O1283   1.262       .  A
C1285      C1286   1.404       .  A
C1285      C1290   1.406       .  A
C1285      H1292   1.072       .  S
C1286      C1287   1.414   1_565  A
C1287      C1288   1.396       .  A
C1287      N1294   1.429       .  S
C1288      C1289   1.398       .  A
C1288      H1293   1.073       .  S
C1289      C1290   1.411   1_545  A
C1290      N1291   1.427       .  S
N1291      O1295   1.262       .  A
N1291      O1296   1.262       .  A
N1294      O1298   1.262       .  A
N1294      O1297   1.262       .  A
C1299      C1300   1.403       .  A
C1299      C1304   1.405   1_565  A
C1299      H1306   1.075       .  S
C1300      C1301   1.406       .  A
C1301      C1302   1.396       .  A
C1301      N1308   1.428       .  S
C1302      C1303   1.404   1_565  A
C1302      H1307   1.075       .  S
C1303      C1304   1.414       .  A
C1304      N1305   1.428       .  S
N1305      O1309   1.262       .  A
N1305      O1310   1.262       .  A
N1308      O1312   1.262       .  A
N1308      O1311   1.262       .  A
C1313      C1314   1.403       .  A
C1313      C1318   1.396       .  A
C1313      H1320   1.079       .  S
C1314      C1315   1.416       .  A
C1315      C1316   1.399       .  A
C1315      N1322   1.428       .  S
C1316      C1317   1.402       .  A
C1316      H1321   1.076       .  S
C1317      C1318   1.411       .  A
C1318      N1319   1.427       .  S
N1319      O1323   1.261       .  A
N1319      O1324   1.262       .  A
N1322      O1326   1.262       .  A
N1322      O1325   1.262       .  A
C1327      C1328   1.403       .  A
C1327      C1332   1.401       .  A
C1327      H1334   1.074       .  S
C1328      C1329   1.407       .  A
C1329      C1330   1.393       .  A
C1329      N1336   1.429       .  S
C1330      C1331   1.406       .  A
C1330      H1335   1.074       .  S
C1331      C1332   1.414       .  A
C1332      N1333   1.428       .  S
N1333      O1337   1.262       .  A
N1333      O1338   1.262       .  A
N1336      O1340   1.262       .  A
N1336      O1339   1.262       .  A
C1341      C1342   1.405       .  A
C1341      C1346   1.400       .  A
C1341      H1348   1.075       .  S
C1342      C1343   1.413       .  A
C1343      C1344   1.397       .  A
C1343      N1350   1.428       .  S
C1344      C1345   1.403       .  A
C1344      H1349   1.076       .  S
C1345      C1346   1.413       .  A
C1346      N1347   1.428       .  S
N1347      O1351   1.262       .  A
N1347      O1352   1.262       .  A
N1350      O1354   1.262       .  A
N1350      O1353   1.262       .  A
C1355      C1356   1.399       .  A
C1355      C1360   1.393       .  A
C1355      H1362   1.070       .  S
C1356      C1357   1.412       .  A
C1357      C1358   1.404       .  A
C1357      N1364   1.427       .  S
C1358      C1359   1.404       .  A
C1358      H1363   1.072       .  S
C1359      C1360   1.415       .  A
C1360      N1361   1.429       .  S
N1361      O1365   1.262       .  A
N1361      O1366   1.262       .  A
N1364      O1368   1.262       .  A
N1364      O1367   1.262       .  A
C1369      C1370   1.399       .  A
C1369      C1374   1.401   1_455  A
C1369      H1376   1.077       .  S
C1370      C1371   1.417   1_455  A
C1371      C1372   1.393       .  A
C1371      N1378   1.428       .  S
C1372      C1373   1.393       .  A
C1372      H1377   1.079       .  S
C1373      C1374   1.412       .  A
C1374      N1375   1.425   1_655  S
N1375      O1379   1.262       .  A
N1375      O1380   1.260       .  A
N1378      O1382   1.262       .  A
N1378      O1381   1.261       .  A
C1383      C1384   1.402       .  A
C1383      C1388   1.406       .  A
C1383      H1390   1.072       .  S
C1384      C1385   1.415   1_655  A
C1385      C1386   1.386       .  A
C1385      N1392   1.430       .  S
C1386      C1387   1.395       .  A
C1386      H1391   1.074       .  S
C1387      C1388   1.415   1_455  A
C1388      N1389   1.427       .  S
N1389      O1393   1.260       .  A
N1389      O1394   1.262       .  A
N1392      O1396   1.260       .  A
N1392      O1395   1.262       .  A
C1397      C1398   1.404       .  A
C1397      C1402   1.409       .  A
C1397      H1404   1.071       .  S
C1398      C1399   1.404       .  A
C1399      C1400   1.389       .  A
C1399      N1406   1.429       .  S
C1400      C1401   1.405       .  A
C1400      H1405   1.072       .  S
C1401      C1402   1.414       .  A
C1402      N1403   1.427       .  S
N1403      O1407   1.262       .  A
N1403      O1408   1.262       .  A
N1406      O1410   1.262       .  A
N1406      O1409   1.262       .  A
C1411      C1412   1.400       .  A
C1411      C1416   1.401       .  A
C1411      H1418   1.078       .  S
C1412      C1413   1.413       .  A
C1413      C1414   1.399       .  A
C1413      N1420   1.428       .  S
C1414      C1415   1.397       .  A
C1414      H1419   1.079       .  S
C1415      C1416   1.414       .  A
C1416      N1417   1.429       .  S
N1417      O1421   1.262       .  A
N1417      O1422   1.262       .  A
N1420      O1424   1.262       .  A
N1420      O1423   1.262       .  A
C1425      C1426   1.406       .  A
C1425      C1430   1.399       .  A
C1425      H1432   1.084       .  S
C1426      C1427   1.418       .  A
C1427      C1428   1.402       .  A
C1427      N1434   1.427       .  S
C1428      C1429   1.398       .  A
C1428      H1433   1.078       .  S
C1429      C1430   1.408       .  A
C1430      N1431   1.431       .  S
N1431      O1435   1.262       .  A
N1431      O1436   1.263       .  A
N1434      O1438   1.262       .  A
N1434      O1437   1.262       .  A
C1439      C1440   1.403       .  A
C1439      C1444   1.397       .  A
C1439      H1446   1.075       .  S
C1440      C1441   1.415       .  A
C1441      C1442   1.403       .  A
C1441      N1448   1.427       .  S
C1442      C1443   1.406       .  A
C1442      H1447   1.078       .  S
C1443      C1444   1.419       .  A
C1444      N1445   1.429       .  S
N1445      O1449   1.262       .  A
N1445      O1450   1.262       .  A
N1448      O1452   1.262       .  A
N1448      O1451   1.262       .  A
C1453      C1454   1.398       .  A
C1453      C1458   1.398       .  A
C1453      H1460   1.073       .  S
C1454      C1455   1.408       .  A
C1455      C1456   1.400       .  A
C1455      N1462   1.427       .  S
C1456      C1457   1.400       .  A
C1456      H1461   1.074       .  S
C1457      C1458   1.414       .  A
C1458      N1459   1.429       .  S
N1459      O1463   1.262       .  A
N1459      O1464   1.262       .  A
N1462      O1466   1.262       .  A
N1462      O1465   1.262       .  A
C1467      C1468   1.403       .  A
C1467      C1472   1.390       .  A
C1467      H1474   1.075       .  S
C1468      C1469   1.411       .  A
C1469      C1470   1.404       .  A
C1469      N1476   1.428       .  S
C1470      C1471   1.403       .  A
C1470      H1475   1.074       .  S
C1471      C1472   1.405       .  A
C1472      N1473   1.428       .  S
N1473      O1477   1.262       .  A
N1473      O1478   1.262       .  A
N1476      O1480   1.262       .  A
N1476      O1479   1.262       .  A
C1481      C1482   1.403       .  A
C1481      C1486   1.400       .  A
C1481      H1488   1.080       .  S
C1482      C1483   1.417       .  A
C1483      C1484   1.400       .  A
C1483      N1490   1.427       .  S
C1484      C1485   1.402       .  A
C1484      H1489   1.080       .  S
C1485      C1486   1.417       .  A
C1486      N1487   1.429       .  S
N1487      O1491   1.262       .  A
N1487      O1492   1.262       .  A
N1490      O1494   1.262       .  A
N1490      O1493   1.262       .  A
C1495      C1496   1.405       .  A
C1495      C1500   1.407       .  A
C1495      H1502   1.074       .  S
C1496      C1497   1.414       .  A
C1497      C1498   1.396       .  A
C1497      N1504   1.429       .  S
C1498      C1499   1.405       .  A
C1498      H1503   1.074       .  S
C1499      C1500   1.415       .  A
C1500      N1501   1.428       .  S
N1501      O1505   1.262       .  A
N1501      O1506   1.263       .  A
N1504      O1508   1.262       .  A
N1504      O1507   1.262       .  A
C1509      C1510   1.403       .  A
C1509      C1514   1.398       .  A
C1509      H1516   1.076       .  S
C1510      C1511   1.417       .  A
C1511      C1512   1.404       .  A
C1511      N1518   1.428       .  S
C1512      C1513   1.406       .  A
C1512      H1517   1.076       .  S
C1513      C1514   1.418       .  A
C1514      N1515   1.428       .  S
N1515      O1519   1.262       .  A
N1515      O1520   1.262       .  A
N1518      O1522   1.262       .  A
N1518      O1521   1.262       .  A
C1523      C1524   1.404       .  A
C1523      C1528   1.398       .  A
C1523      H1530   1.075       .  S
C1524      C1525   1.412       .  A
C1525      C1526   1.399       .  A
C1525      N1532   1.428       .  S
C1526      C1527   1.403       .  A
C1526      H1531   1.075       .  S
C1527      C1528   1.411       .  A
C1528      N1529   1.428       .  S
N1529      O1533   1.262       .  A
N1529      O1534   1.262       .  A
N1532      O1536   1.262       .  A
N1532      O1535   1.262       .  A
