geometry optimzed in LAMMPS
_audit_creation_date              2020-11-30 
_audit_creation_method            'lammps2cif' 
_symmetry_space_group_name_H-M    'P1' 
_symmetry_Int_Tables_number       1 
_symmetry_cell_setting            triclinic 
loop_ 
_symmetry_equiv_pos_as_xyz 
  x,y,z 
_cell_length_a                    28.97842463 
_cell_length_b                    28.949171682135855 
_cell_length_c                    34.96341293754826 
_cell_angle_alpha                 89.94714961898143 
_cell_angle_beta                  89.57147434010422 
_cell_angle_gamma                 85.65588404835191 
loop_ 
_atom_site_label 
_atom_site_type_symbol 
_atom_site_fract_x 
_atom_site_fract_y 
_atom_site_fract_z 
_atom_site_charge 
N1          N  0.00459518  0.93179630  0.07502643    -0.05700
N2          N  0.98478535  0.90538046  0.09994813    -0.57800
N3          N  0.10193738  0.98027030  0.05095488    -0.05400
N4          N  0.14590007  0.97991103  0.06081426    -0.59900
N5          N  0.07561955  0.00455247  0.07568461    -0.05000
N6          N  0.10112890  0.02148896  0.10265183    -0.57800
N7          N  0.03102138  0.90661443  0.05102187    -0.04600
N8          N  0.02967020  0.86212338  0.05920576    -0.60300
C9          C  0.00056026  0.86216648  0.08974535     0.96500
C10         C  0.14480060  0.00604701  0.09296225     0.96300
N11         N  0.08465165  0.99667200  0.43130149    -0.05900
N12         N  0.11268636  0.00891863  0.40392835    -0.58400
N13         N  0.03760375  0.90131008  0.46130564    -0.04000
N14         N  0.03808399  0.85592006  0.45836177    -0.59600
N15         N  0.01519077  0.92172910  0.43255355    -0.05900
N16         N  0.00021060  0.89020972  0.40914575    -0.58700
N17         N  0.10809632  0.97502497  0.45898256    -0.03600
N18         N  0.15286925  0.97192317  0.45062434    -0.59700
Mn19       Mn  0.07080895  0.93992342  0.00575529     1.18400
C20         C  0.15502196  0.99371610  0.41635325     0.98600
C21         C  0.01479150  0.84935706  0.42583379     0.99200
N22         N  0.99502536  0.08228239  0.06949357    -0.05900
N23         N  0.01099161  0.11085667  0.09451940    -0.62200
N24         N  0.90151366  0.03080312  0.04071539    -0.04700
N25         N  0.85645702  0.02790097  0.04363186    -0.62900
N26         N  0.92307120  0.00927090  0.06932569    -0.05400
N27         N  0.89283063  0.99155668  0.09266234    -0.62500
N28         N  0.97214480  0.10518311  0.04221939    -0.04300
N29         N  0.97142839  0.15031984  0.04865330    -0.63200
Mn30       Mn  0.99946078  0.00707625  0.07333648     1.10700
C31         C  0.99620183  0.15300826  0.08127281     0.99800
C32         C  0.85146204  0.00346638  0.07606672     0.99900
N33         N  0.93366173  0.00038114  0.42682941    -0.05400
N34         N  0.90782232  0.97999720  0.40201721    -0.60800
N35         N  0.97741342  0.10017315  0.45086842    -0.04800
N36         N  0.97530525  0.14464319  0.44215248    -0.58400
N37         N  0.00319478  0.07579005  0.42581595    -0.06100
N38         N  0.01947967  0.10351678  0.39966325    -0.60400
N39         N  0.90768920  0.02561648  0.45112994    -0.05100
N40         N  0.86346044  0.02297367  0.44325866    -0.57600
Mn41       Mn  0.00924267  0.99866809  0.42803405     1.20200
Mn42       Mn  0.93878538  0.06667426  0.49602642     1.10100
Cl43       Cl  0.00476201  0.00326644  0.00088434    -0.85500
C44         C  0.86421047  0.99425504  0.41265847     0.96800
C45         C  0.00182294  0.14632734  0.41028130     0.96600
C46         C  0.98587392  0.54729000  0.26700719     0.02700
C47         C  0.98274401  0.54477562  0.22667155     0.02700
C48         C  0.97092354  0.50394714  0.20942007    -0.17800
C49         C  0.96322344  0.46476333  0.23105021     0.02700
C50         C  0.96819770  0.46578205  0.27116217     0.02700
C51         C  0.97902559  0.50730460  0.28890858    -0.17800
H52         H  0.98253415  0.50822961  0.31971960     0.04700
H53         H  0.96832365  0.50242198  0.17849437     0.04700
C54         C  0.55050786  0.99572978  0.23503167     0.02700
C55         C  0.54521084  0.00684559  0.27425107     0.02700
C56         C  0.50120265  0.01027914  0.29084798    -0.17800
C57         C  0.46201274  0.00068660  0.27012582     0.02700
C58         C  0.46670639  0.98921081  0.23072095     0.02700
C59         C  0.51115969  0.98629431  0.21382804    -0.17800
H60         H  0.51468739  0.97894495  0.18351782     0.04700
H61         H  0.49766061  0.01884989  0.32100615     0.04700
C62         C  0.26742917  0.99620674  0.13579483     0.19100
C63         C  0.30269902  0.96025542  0.13672905    -0.19000
C64         C  0.34159463  0.96351671  0.15974505    -0.11200
C65         C  0.34646183  0.00345058  0.18190949     0.21400
C66         C  0.31100090  0.03927931  0.18107658    -0.20600
C67         C  0.27203691  0.03590781  0.15821074    -0.11400
C68         C  0.38718590  0.00917172  0.20672716    -0.15600
C69         C  0.42677390  0.98159470  0.20564249    -0.29400
C70         C  0.22691603  0.99132915  0.11066278    -0.03700
C71         C  0.18518157  0.01373815  0.11688617    -0.40200
H72         H  0.29991244  0.92922649  0.11985666     0.12500
H73         H  0.36722244  0.93443020  0.16016291     0.12200
H74         H  0.31366310  0.07035675  0.19791416     0.11600
H75         H  0.24621561  0.06488585  0.15766361     0.11800
H76         H  0.38490178  0.03843777  0.22625479     0.14600
H77         H  0.43204842  0.95493454  0.18399306     0.13300
H78         H  0.23098079  0.96654194  0.08732012     0.11000
H79         H  0.17935184  0.03646187  0.14136891     0.13000
C80         C  0.27654025  0.97142057  0.37299579     0.19100
C81         C  0.32116923  0.97948343  0.38504924    -0.19000
C82         C  0.35763762  0.97877295  0.35864749    -0.11200
C83         C  0.35018807  0.96903597  0.31983954     0.21400
C84         C  0.30608038  0.95861787  0.30810701    -0.20600
C85         C  0.26936731  0.96024875  0.33438725    -0.11400
C86         C  0.38846095  0.96920923  0.29161911    -0.15600
C87         C  0.41819331  0.00255021  0.29235920    -0.29400
C88         C  0.23783357  0.97447423  0.40099435    -0.03700
C89         C  0.19607105  0.99387527  0.39139909    -0.40200
H90         H  0.32756301  0.98738955  0.41473301     0.12500
H91         H  0.39176818  0.98557267  0.36860339     0.12200
H92         H  0.29985525  0.95030312  0.27847003     0.11600
H93         H  0.23544030  0.95253554  0.32458811     0.11800
H94         H  0.39246544  0.94153967  0.27064077     0.14600
H95         H  0.41320821  0.02973088  0.31376757     0.13300
H96         H  0.24399246  0.96165456  0.42986703     0.11000
H97         H  0.19099255  0.00895933  0.36312926     0.13000
C98         C  0.66113148  0.97123267  0.17334062     0.19100
C99         C  0.67088205  0.95796160  0.13539684    -0.19000
C100        C  0.71551094  0.96003047  0.12019365    -0.11200
C101        C  0.75146811  0.97489639  0.14292421     0.21400
C102        C  0.74220699  0.98607190  0.18135639    -0.20600
C103        C  0.69753533  0.98445350  0.19644311    -0.11400
C104        C  0.79870227  0.97965182  0.12727678    -0.15600
C105        C  0.80574384  0.99300144  0.09104912    -0.29400
C106        C  0.61315742  0.96976996  0.18849098    -0.03700
C107        C  0.59630758  0.99877566  0.21609857    -0.40200
H108        H  0.64371107  0.94669399  0.11729267     0.12500
H109        H  0.72183106  0.94974997  0.09075527     0.12200
H110        H  0.76945488  0.99692550  0.19959199     0.11600
H111        H  0.69182050  0.99304379  0.22630340     0.11800
H112        H  0.82777862  0.97632639  0.14680790     0.14600
H113        H  0.77644174  0.00009443  0.07221055     0.13300
H114        H  0.59149223  0.94435873  0.17671345     0.11000
H115        H  0.61789587  0.02481939  0.22689373     0.13000
C116        C  0.74061149  0.99791534  0.37341464     0.19100
C117        C  0.70549922  0.03387470  0.37194648    -0.19000
C118        C  0.66720024  0.03058393  0.34844396    -0.11200
C119        C  0.66272941  0.99057646  0.32629041     0.21400
C120        C  0.69767216  0.95430628  0.32814374    -0.20600
C121        C  0.73617711  0.95776320  0.35151515    -0.11400
C122        C  0.62297483  0.98539069  0.30043908    -0.15600
C123        C  0.58463581  0.01466676  0.29958876    -0.29400
C124        C  0.78131894  0.00409880  0.39780465    -0.03700
C125        C  0.82328968  0.98267302  0.39107055    -0.40200
H126        H  0.70818479  0.06518517  0.38848172     0.12500
H127        H  0.64195325  0.05993877  0.34754588     0.12200
H128        H  0.69516290  0.92308267  0.31146132     0.11600
H129        H  0.76196841  0.92877750  0.35258988     0.11800
H130        H  0.62483481  0.95532183  0.28172899     0.14600
H131        H  0.57944460  0.04256758  0.32013043     0.13300
H132        H  0.77748198  0.03009621  0.42025258     0.11000
H133        H  0.82888040  0.95863719  0.36742265     0.13000
C134        C  0.97642884  0.27173944  0.12984370     0.19100
C135        C  0.95416301  0.31505903  0.12104957    -0.19000
C136        C  0.95491860  0.35197691  0.14672144    -0.11200
C137        C  0.97747954  0.34603323  0.18216283     0.21400
C138        C  0.99955626  0.30270280  0.19102488    -0.20600
C139        C  0.99871278  0.26581370  0.16543585    -0.11400
C140        C  0.98123990  0.38471491  0.20949600    -0.15600
C141        C  0.95226294  0.42311655  0.20967363    -0.29400
C142        C  0.97382661  0.23298547  0.10223619    -0.03700
C143        C  0.00360338  0.19521668  0.10284112    -0.40200
H144        H  0.93657588  0.32051415  0.09400052     0.12500
H145        H  0.93875318  0.38518819  0.13811471     0.12200
H146        H  0.01722728  0.29725099  0.21804694     0.11600
H147        H  0.01479453  0.23264958  0.17423886     0.11800
H148        H  0.01005248  0.38227949  0.22932954     0.14600
H149        H  0.92351435  0.42690431  0.18997431     0.13300
H150        H  0.94568672  0.23486084  0.08177270     0.11000
H151        H  0.03232165  0.19280997  0.12259553     0.13000
C152        C  0.99061509  0.35846648  0.33555604     0.19100
C153        C  0.02994880  0.32734057  0.33892585    -0.19000
C154        C  0.02726046  0.28457500  0.35729153    -0.11200
C155        C  0.98516002  0.27243247  0.37329064     0.21400
C156        C  0.94603923  0.30402113  0.37053417    -0.20600
C157        C  0.94854933  0.34640015  0.35157916    -0.11400
C158        C  0.98120161  0.22843114  0.39474288    -0.15600
C159        C  0.00830693  0.18919390  0.38839358    -0.29400
C160        C  0.99477043  0.40364526  0.31605482    -0.03700
C161        C  0.96085356  0.42405067  0.29443692    -0.40200
H162        H  0.06284161  0.33606949  0.32710584     0.12500
H163        H  0.05840461  0.26171968  0.35974184     0.12200
H164        H  0.91333650  0.29582130  0.38306494     0.11600
H165        H  0.91784589  0.37007943  0.35020957     0.11800
H166        H  0.95336697  0.22786827  0.41571779     0.14600
H167        H  0.03428440  0.18771630  0.36583224     0.13300
H168        H  0.02803305  0.41864579  0.31676638     0.11000
H169        H  0.92928541  0.40687033  0.28998122     0.13000
C170        C  0.98089251  0.66367129  0.17707018     0.19100
C171        C  0.94670760  0.70003024  0.17230677    -0.19000
C172        C  0.95425583  0.73685570  0.14784503    -0.11200
C173        C  0.99671198  0.73845352  0.12820493     0.21400
C174        C  0.03063590  0.70174706  0.13248459    -0.20600
C175        C  0.02305920  0.66485775  0.15692218    -0.11400
C176        C  0.00705762  0.77843173  0.10395380    -0.15600
C177        C  0.98819082  0.82127255  0.11113679    -0.29400
C178        C  0.97186397  0.62571117  0.20389028    -0.03700
C179        C  0.99317763  0.58309838  0.20080651    -0.40200
H180        H  0.91392834  0.69979051  0.18738524     0.12500
H181        H  0.92666261  0.76379853  0.14430518     0.12200
H182        H  0.06359450  0.70226523  0.11771858     0.11600
H183        H  0.05077311  0.63808621  0.16063254     0.11800
H184        H  0.03318132  0.77319067  0.08158476     0.14600
H185        H  0.96436939  0.82755243  0.13497681     0.13300
H186        H  0.94551238  0.63236896  0.22591250     0.11000
H187        H  0.01566563  0.57437474  0.17650064     0.13000
C188        C  0.98947420  0.74606570  0.36126664     0.19100
C189        C  0.99417778  0.73729291  0.32190780    -0.19000
C190        C  0.99118706  0.69250878  0.30745797    -0.11200
C191        C  0.98301900  0.65545818  0.33216740     0.21400
C192        C  0.97716818  0.66445883  0.37136643    -0.20600
C193        C  0.98053747  0.70912342  0.38584855    -0.11400
C194        C  0.97706265  0.60797492  0.31758687    -0.15600
C195        C  0.99795605  0.59105074  0.28551526    -0.29400
C196        C  0.99326765  0.79406415  0.37573281    -0.03700
C197        C  0.00793940  0.80258365  0.41122307    -0.40200
H198        H  0.00035983  0.76516783  0.30227281     0.12500
H199        H  0.99408869  0.68735125  0.27686418     0.12200
H200        H  0.96985725  0.63679801  0.39087427     0.11600
H201        H  0.97508922  0.71467314  0.41618303     0.11800
H202        H  0.95372204  0.58697864  0.33318079     0.14600
H203        H  0.02190834  0.61180880  0.27045457     0.13300
H204        H  0.98648077  0.82283976  0.35607508     0.11000
H205        H  0.01812964  0.77394949  0.43014555     0.13000
N206        N  0.00509884  0.93213406  0.57483666    -0.05700
N207        N  0.98532486  0.90584500  0.59986413    -0.57800
N208        N  0.10220839  0.98080592  0.55040450    -0.05400
N209        N  0.14625674  0.98084488  0.55986561    -0.59900
N210        N  0.07600745  0.00519676  0.57513701    -0.05000
N211        N  0.10172205  0.02262122  0.60174046    -0.57800
N212        N  0.03145744  0.90684775  0.55085745    -0.04600
N213        N  0.03010998  0.86237606  0.55920411    -0.60300
C214        C  0.00104778  0.86257830  0.58980515     0.96500
C215        C  0.14537490  0.00731804  0.59180090     0.96300
N216        N  0.08441431  0.99628829  0.93158201    -0.05900
N217        N  0.11235584  0.00832755  0.90407871    -0.58400
N218        N  0.03711336  0.90115303  0.96155758    -0.04000
N219        N  0.03736874  0.85577002  0.95865184    -0.59600
N220        N  0.01464819  0.92163762  0.93285418    -0.05900
N221        N  0.99945849  0.89016651  0.90950373    -0.58700
N222        N  0.10793268  0.97460638  0.95921566    -0.03600
N223        N  0.15267693  0.97123673  0.95064107    -0.59700
Mn224      Mn  0.07110730  0.94022114  0.50546506     1.18400
C225        C  0.15471411  0.99294837  0.91630830     0.98600
C226        C  0.01393403  0.84927478  0.92618145     0.99200
N227        N  0.99506960  0.08256534  0.56909908    -0.05900
N228        N  0.01113120  0.11119590  0.59403043    -0.62200
N229        N  0.90170189  0.03061496  0.54040963    -0.04700
N230        N  0.85671180  0.02711294  0.54309565    -0.62900
N231        N  0.92332526  0.00919627  0.56904535    -0.05400
N232        N  0.89317012  0.99095163  0.59216382    -0.62500
N233        N  0.97206233  0.10538518  0.54184931    -0.04300
N234        N  0.97134910  0.15054115  0.54822139    -0.63200
Mn235      Mn  0.99977169  0.00738815  0.57300908     1.10700
C236        C  0.99625554  0.15331040  0.58077016     0.99800
C237        C  0.85179000  0.00243578  0.57541201     0.99900
N238        N  0.93322862  0.00068984  0.92707796    -0.05400
N239        N  0.90717527  0.98073470  0.90214864    -0.60800
N240        N  0.97752753  0.10012799  0.95134319    -0.04800
N241        N  0.97567299  0.14464384  0.94286171    -0.58400
N242        N  0.00323826  0.07578236  0.92622573    -0.06100
N243        N  0.01975326  0.10361574  0.90024986    -0.60400
N244        N  0.90743206  0.02603255  0.95142697    -0.05100
N245        N  0.86315672  0.02393050  0.94347806    -0.57600
Mn246      Mn  0.00894648  0.99859865  0.92834048     1.20200
Mn247      Mn  0.93876121  0.06671119  0.99638226     1.10100
Cl248      Cl  0.00497520  0.00343722  0.50056688    -0.85500
C249        C  0.86364473  0.99541848  0.91277409     0.96800
C250        C  0.00227436  0.14643627  0.91106173     0.96600
C251        C  0.98574142  0.54711370  0.76739440     0.02700
C252        C  0.98190126  0.54497936  0.72708640     0.02700
C253        C  0.96987327  0.50423599  0.70979340    -0.17800
C254        C  0.96269785  0.46481565  0.73132270     0.02700
C255        C  0.96835755  0.46548363  0.77138798     0.02700
C256        C  0.97934269  0.50693136  0.78918913    -0.17800
H257        H  0.98330027  0.50768274  0.81996493     0.04700
H258        H  0.96679475  0.50293039  0.67889479     0.04700
C259        C  0.55086372  0.99354434  0.73451015     0.02700
C260        C  0.54541455  0.00516010  0.77364373     0.02700
C261        C  0.50128098  0.00907891  0.79004242    -0.17800
C262        C  0.46206819  0.99978519  0.76919140     0.02700
C263        C  0.46693360  0.98798393  0.72986166     0.02700
C264        C  0.51151707  0.98429925  0.71321861    -0.17800
H265        H  0.51513594  0.97668463  0.68295934     0.04700
H266        H  0.49761700  0.01799114  0.82012602     0.04700
C267        C  0.26816003  0.99699607  0.63420470     0.19100
C268        C  0.30248709  0.96022094  0.63618252    -0.19000
C269        C  0.34142480  0.96333249  0.65917395    -0.11200
C270        C  0.34730601  0.00391012  0.68022830     0.21400
C271        C  0.31283911  0.04062213  0.67827352    -0.20600
C272        C  0.27380431  0.03739268  0.65545187    -0.11400
C273        C  0.38798029  0.00927308  0.70518193    -0.15600
C274        C  0.42706206  0.98092211  0.70456263    -0.29400
C275        C  0.22746679  0.99218026  0.60928525    -0.03700
C276        C  0.18603061  0.01530218  0.61531817    -0.40200
H277        H  0.29887055  0.92865054  0.62021747     0.12500
H278        H  0.36624254  0.93361165  0.66053961     0.12200
H279        H  0.31630988  0.07221597  0.69424228     0.11600
H280        H  0.24869643  0.06693660  0.65403473     0.11800
H281        H  0.38609273  0.03879775  0.72444071     0.14600
H282        H  0.43199915  0.95397361  0.68311553     0.13300
H283        H  0.23105250  0.96670473  0.58642495     0.11000
H284        H  0.18065976  0.03867201  0.63944077     0.13000
C285        C  0.27599511  0.97137211  0.87196232     0.19100
C286        C  0.32078737  0.97903451  0.88387047    -0.19000
C287        C  0.35704612  0.97871061  0.85728214    -0.11200
C288        C  0.34925278  0.96978720  0.81838471     0.21400
C289        C  0.30494731  0.95991754  0.80672070    -0.20600
C290        C  0.26844759  0.96113091  0.83320938    -0.11400
C291        C  0.38748853  0.96976246  0.79008284    -0.15600
C292        C  0.41803528  0.00234860  0.79121803    -0.29400
C293        C  0.23754344  0.97388101  0.90027177    -0.03700
C294        C  0.19556360  0.99310352  0.89108086    -0.40200
H295        H  0.32750040  0.98624260  0.91362865     0.12500
H296        H  0.39131923  0.98503289  0.86719491     0.12200
H297        H  0.29843920  0.95219942  0.77701311     0.11600
H298        H  0.23441568  0.95372198  0.82345347     0.11800
H299        H  0.39096780  0.94230382  0.76889702     0.14600
H300        H  0.41352852  0.02929230  0.81286612     0.13300
H301        H  0.24409751  0.96096064  0.92906153     0.11000
H302        H  0.19011970  0.00833087  0.86290415     0.13000
C303        C  0.66123361  0.96909974  0.67237256     0.19100
C304        C  0.67077608  0.95656189  0.63422658    -0.19000
C305        C  0.71538319  0.95876479  0.61895669    -0.11200
C306        C  0.75151653  0.97305262  0.64181617     0.21400
C307        C  0.74240030  0.98354674  0.68039360    -0.20600
C308        C  0.69779032  0.98176355  0.69554757    -0.11400
C309        C  0.79881701  0.97794990  0.62626777    -0.15600
C310        C  0.80608890  0.99129143  0.59006840    -0.29400
C311        C  0.61331772  0.96756441  0.68766523    -0.03700
C312        C  0.59676720  0.99622562  0.71563417    -0.40200
H313        H  0.64347229  0.94575691  0.61603481     0.12500
H314        H  0.72152981  0.94901549  0.58938208     0.12200
H315        H  0.76974416  0.99397160  0.69872981     0.11600
H316        H  0.69224609  0.98979358  0.72552817     0.11800
H317        H  0.82777398  0.97488745  0.64592834     0.14600
H318        H  0.77693010  0.99809394  0.57103937     0.13300
H319        H  0.59146275  0.94247899  0.67565204     0.11000
H320        H  0.61856974  0.02201301  0.72654190     0.13000
C321        C  0.74023188  0.99990269  0.87314908     0.19100
C322        C  0.70688869  0.03705356  0.86836932    -0.19000
C323        C  0.66882321  0.03277651  0.84474923    -0.11200
C324        C  0.66277247  0.99064383  0.82600253     0.21400
C325        C  0.69595400  0.95329984  0.83115401    -0.20600
C326        C  0.73423736  0.95772571  0.85457554    -0.11400
C327        C  0.62326032  0.98447373  0.80015716    -0.15600
C328        C  0.58474148  0.01345751  0.79900331    -0.29400
C329        C  0.78089946  0.00668864  0.89738917    -0.03700
C330        C  0.82251262  0.98414811  0.89130393    -0.40200
H331        H  0.71089056  0.06993236  0.88227336     0.12500
H332        H  0.64501822  0.06293595  0.84085732     0.12200
H333        H  0.69218855  0.92049065  0.81706751     0.11600
H334        H  0.75871648  0.92798369  0.85833775     0.11800
H335        H  0.62533104  0.95391195  0.78199698     0.14600
H336        H  0.57947392  0.04151090  0.81944484     0.13300
H337        H  0.77744519  0.03383718  0.91890728     0.11000
H338        H  0.82758715  0.95917849  0.86824703     0.13000
C339        C  0.97666165  0.27205573  0.62949197     0.19100
C340        C  0.95257241  0.31473431  0.62146253    -0.19000
C341        C  0.95322226  0.35169425  0.64711319    -0.11200
C342        C  0.97759463  0.34645040  0.68177943     0.21400
C343        C  0.00153212  0.30377706  0.68986593    -0.20600
C344        C  0.00078754  0.26684393  0.66431358    -0.11400
C345        C  0.98131960  0.38520097  0.70907541    -0.15600
C346        C  0.95179871  0.42320145  0.70986294    -0.29400
C347        C  0.97389157  0.23318269  0.60198515    -0.03700
C348        C  0.00391355  0.19558320  0.60217494    -0.40200
H349        H  0.93353611  0.31965290  0.59503490     0.12500
H350        H  0.93548011  0.38438779  0.63906310     0.12200
H351        H  0.02062140  0.29885253  0.71627671     0.11600
H352        H  0.01841877  0.23420644  0.67262095     0.11800
H353        H  0.01061106  0.38317979  0.72843133     0.14600
H354        H  0.92255388  0.42676832  0.69066550     0.13300
H355        H  0.94527091  0.23475009  0.58198559     0.11000
H356        H  0.03305470  0.19327420  0.62148563     0.13000
C357        C  0.99078959  0.35877984  0.83674740     0.19100
C358        C  0.03050964  0.32842371  0.84134895    -0.19000
C359        C  0.02789065  0.28561454  0.85968694    -0.11200
C360        C  0.98546007  0.27267878  0.87445349     0.21400
C361        C  0.94595897  0.30357146  0.87062536    -0.20600
C362        C  0.94841824  0.34596265  0.85166620    -0.11400
C363        C  0.98146023  0.22852112  0.89566556    -0.15600
C364        C  0.00897359  0.18949602  0.88948677    -0.29400
C365        C  0.99479041  0.40393969  0.81710522    -0.03700
C366        C  0.96133551  0.42351265  0.79454710    -0.40200
H367        H  0.06364242  0.33774732  0.83045034     0.12500
H368        H  0.05926976  0.26329455  0.86303986     0.12200
H369        H  0.91298066  0.29477033  0.88224324     0.11600
H370        H  0.91737883  0.36904977  0.84939245     0.11800
H371        H  0.95316499  0.22760092  0.91617809     0.14600
H372        H  0.03539028  0.18837177  0.86727984     0.13300
H373        H  0.02763471  0.41965136  0.81860876     0.11000
H374        H  0.93037786  0.40557410  0.78942307     0.13000
C375        C  0.98088480  0.66449779  0.67831674     0.19100
C376        C  0.94712897  0.70134260  0.67398317    -0.19000
C377        C  0.95481982  0.73811387  0.64947811    -0.11200
C378        C  0.99704303  0.73921107  0.62937768     0.21400
C379        C  0.03060920  0.70211999  0.63339656    -0.20600
C380        C  0.02286124  0.66526784  0.65784139    -0.11400
C381        C  0.00749946  0.77891973  0.60477490    -0.15600
C382        C  0.98863377  0.82187891  0.61148538    -0.29400
C383        C  0.97164502  0.62640407  0.70498072    -0.03700
C384        C  0.99211258  0.58347843  0.70125764    -0.40200
H385        H  0.91451707  0.70146634  0.68935292     0.12500
H386        H  0.92744341  0.76532582  0.64621116     0.12200
H387        H  0.06339968  0.70222747  0.61832179     0.11600
H388        H  0.05027848  0.63812066  0.66125013     0.11800
H389        H  0.03365079  0.77337361  0.58246092     0.14600
H390        H  0.96476628  0.82851255  0.63523811     0.13300
H391        H  0.94585736  0.63327479  0.72741159     0.11000
H392        H  0.01388995  0.57474548  0.67652431     0.13000
C393        C  0.98888196  0.74596518  0.86150737     0.19100
C394        C  0.99429425  0.73701478  0.82222253    -0.19000
C395        C  0.99145580  0.69218447  0.80781796    -0.11200
C396        C  0.98273725  0.65525805  0.83249344     0.21400
C397        C  0.97611188  0.66445794  0.87159262    -0.20600
C398        C  0.97931827  0.70916923  0.88603220    -0.11400
C399        C  0.97693402  0.60772397  0.81794361    -0.15600
C400        C  0.99806502  0.59070044  0.78600725    -0.29400
C401        C  0.99269033  0.79397597  0.87596280    -0.03700
C402        C  0.00685103  0.80252341  0.91160621    -0.40200
H403        H  0.00094773  0.76477877  0.80261590     0.12500
H404        H  0.99493097  0.68690776  0.77727265     0.12200
H405        H  0.96832927  0.63691400  0.89105881     0.11600
H406        H  0.97329600  0.71487014  0.91628328     0.11800
H407        H  0.95339405  0.58678820  0.83338291     0.14600
H408        H  0.02220684  0.61132931  0.77103782     0.13300
H409        H  0.98645449  0.82271089  0.85617904     0.11000
H410        H  0.01657438  0.77389495  0.93066993     0.13000
loop_ 
_geom_bond_atom_site_label_1 
_geom_bond_atom_site_label_2 
_geom_bond_distance 
_geom_bond_site_symmetry_2 
_ccdc_geom_bond_type 
N1            N2   1.316   1_455  A
N1            N7   1.315       .  A
N1          Mn30   2.174   1_465  S
N2            C9   1.346   1_655  A
N3            N5   1.317   1_565  A
N3            N4   1.322       .  A
N3          Mn19   2.204       .  S
N4           C10   1.354   1_565  A
N5            N6   1.320       .  A
N5          Mn30   2.205   1_455  S
N6           C10   1.351       .  A
N7            N8   1.323       .  A
N7          Mn19   2.214       .  S
N8            C9   1.356       .  A
C9          C177   1.466   1_455  S
C10          C71   1.474       .  S
N11          N17   1.317       .  A
N11          N12   1.316   1_565  A
N11         Mn41   2.185       .  S
N12          C20   1.347   1_545  A
N13          N14   1.317       .  A
N13          N15   1.316       .  A
N13        Mn224   2.188       .  S
N14          C21   1.348       .  A
N15          N16   1.326       .  A
N15         Mn41   2.226       .  S
N16          C21   1.358       .  A
N17          N18   1.324       .  A
N17        Mn224   2.223       .  S
N18          C20   1.357       .  A
Mn19        N218   2.189   1_554  S
Mn19        N222   2.224   1_554  S
Mn19        Cl43   2.555   1_565  S
C20          C89   1.470       .  S
C21         C197   1.476       .  S
N22          N23   1.315   1_655  A
N22          N28   1.315       .  A
N22         Mn30   2.175       .  S
N23          C31   1.345   1_455  A
N24          N26   1.315       .  A
N24          N25   1.318       .  A
N24        Mn247   2.189   1_554  S
N25          C32   1.349       .  A
N26          N27   1.324   1_545  A
N26         Mn30   2.215       .  S
N27          C32   1.356   1_565  A
N28          N29   1.325       .  A
N28        Mn247   2.221   1_554  S
N29          C31   1.358       .  A
Mn30        Cl43   2.539   1_655  S
C31         C143   1.467   1_655  S
C32         C105   1.474   1_545  S
N33          N34   1.319   1_545  A
N33          N39   1.315       .  A
N33         Mn41   2.188   1_645  S
N34          C44   1.349       .  A
N35          N36   1.320       .  A
N35          N37   1.317   1_655  A
N35         Mn42   2.196       .  S
N36          C45   1.352   1_655  A
N37          N38   1.324       .  A
N37         Mn41   2.228   1_545  S
N38          C45   1.356       .  A
N39          N40   1.321       .  A
N39         Mn42   2.208       .  S
N40          C44   1.355   1_545  A
Mn41       Cl248   2.541   1_565  S
Mn42        N229   2.190       .  S
Mn42        N233   2.223       .  S
Mn42       Cl248   2.555   1_655  S
Cl43       Mn246   2.542   1_544  S
Cl43       Mn247   2.555   1_454  S
C44         C125   1.471       .  S
C45         C159   1.481       .  S
C46         C195   1.489       .  S
C46          C47   1.416       .  A
C46          C51   1.413       .  A
C47         C179   1.478       .  S
C47          C48   1.394       .  A
C48          C49   1.394       .  A
C48          H53   1.086       .  S
C49         C141   1.475       .  S
C49          C50   1.411       .  A
C50         C161   1.484       .  S
C50          C51   1.411       .  A
C51          H52   1.083       .  S
C54         C107   1.487       .  S
C54          C55   1.413   1_565  A
C54          C59   1.409       .  A
C55         C123   1.482       .  S
C55          C56   1.394       .  A
C56          C57   1.397       .  A
C56          H61   1.086       .  S
C57          C87   1.481       .  S
C57          C58   1.421   1_545  A
C58          C69   1.487       .  S
C58          C59   1.410       .  A
C59          H60   1.084       .  S
C62          C70   1.487       .  S
C62          C63   1.403       .  A
C62          C67   1.407   1_565  A
C63          C64   1.399       .  A
C63          H72   1.084       .  S
C64          C65   1.409   1_565  A
C64          H73   1.080       .  S
C65          C68   1.489       .  S
C65          C66   1.404       .  A
C66          C67   1.398       .  A
C66          H74   1.084       .  S
C67          H75   1.081       .  S
C68          H76   1.086       .  S
C68          C69   1.347   1_545  D
C69          H77   1.083       .  S
C70          H78   1.087       .  S
C70          C71   1.345   1_565  D
C71          H79   1.084       .  S
C80          C88   1.481       .  S
C80          C81   1.400       .  A
C80          C85   1.409       .  A
C81          C82   1.397       .  A
C81          H90   1.083       .  S
C82          C83   1.408       .  A
C82          H91   1.083       .  S
C83          C86   1.479       .  S
C83          C84   1.400       .  A
C84          C85   1.399       .  A
C84          H92   1.084       .  S
C85          H93   1.083       .  S
C86          H94   1.086       .  S
C86          C87   1.342   1_565  D
C87          H95   1.087       .  S
C88          H96   1.087       .  S
C88          C89   1.340       .  D
C89          H97   1.087   1_565  S
C98         C106   1.488       .  S
C98          C99   1.402       .  A
C98         C103   1.409       .  A
C99         C100   1.400       .  A
C99         H108   1.083       .  S
C100        C101   1.408       .  A
C100        H109   1.082       .  S
C101        C104   1.486       .  S
C101        C102   1.402       .  A
C102        C103   1.398       .  A
C102        H110   1.084       .  S
C103        H111   1.082       .  S
C104        H112   1.087       .  S
C104        C105   1.343       .  D
C105        H113   1.086   1_565  S
C106        H114   1.086       .  S
C106        C107   1.344       .  D
C107        H115   1.085   1_565  S
C116        C124   1.483   1_565  S
C116        C117   1.401   1_565  A
C116        C121   1.407       .  A
C117        C118   1.395       .  A
C117        H126   1.084       .  S
C118        C119   1.409   1_545  A
C118        H127   1.079       .  S
C119        C122   1.486       .  S
C119        C120   1.404       .  A
C120        C121   1.398       .  A
C120        H128   1.084       .  S
C121        H129   1.081       .  S
C122        H130   1.087       .  S
C122        C123   1.346   1_565  D
C123        H131   1.083       .  S
C124        H132   1.087       .  S
C124        C125   1.342   1_545  D
C125        H133   1.084       .  S
C134        C142   1.487       .  S
C134        C135   1.401       .  A
C134        C139   1.411       .  A
C135        C136   1.398       .  A
C135        H144   1.083       .  S
C136        C137   1.410       .  A
C136        H145   1.081       .  S
C137        C140   1.484       .  S
C137        C138   1.400       .  A
C138        C139   1.396       .  A
C138        H146   1.084   1_655  S
C139        H147   1.080   1_655  S
C140        H148   1.087   1_655  S
C140        C141   1.341       .  D
C141        H149   1.084       .  S
C142        H150   1.087       .  S
C142        C143   1.341   1_655  D
C143        H151   1.084       .  S
C152        C160   1.487       .  S
C152        C153   1.404   1_655  A
C152        C157   1.406       .  A
C153        C154   1.401       .  A
C153        H162   1.083       .  S
C154        C155   1.407   1_455  A
C154        H163   1.082       .  S
C155        C158   1.489       .  S
C155        C156   1.405       .  A
C156        C157   1.400       .  A
C156        H164   1.084       .  S
C157        H165   1.083       .  S
C158        H166   1.087       .  S
C158        C159   1.349   1_655  D
C159        H167   1.085       .  S
C160        H168   1.087   1_655  S
C160        C161   1.345       .  D
C161        H169   1.086       .  S
C170        C178   1.481       .  S
C170        C171   1.400       .  A
C170        C175   1.409   1_655  A
C171        C172   1.395       .  A
C171        H180   1.083       .  S
C172        C173   1.408       .  A
C172        H181   1.082       .  S
C173        C176   1.482   1_655  S
C173        C174   1.401   1_655  A
C174        C175   1.396       .  A
C174        H182   1.083       .  S
C175        H183   1.081       .  S
C176        H184   1.087       .  S
C176        C177   1.340   1_455  D
C177        H185   1.085       .  S
C178        H186   1.087       .  S
C178        C179   1.341       .  D
C179        H187   1.085   1_655  S
C188        C196   1.491       .  S
C188        C189   1.403       .  A
C188        C193   1.409       .  A
C189        C190   1.401       .  A
C189        H198   1.083   1_655  S
C190        C191   1.409       .  A
C190        H199   1.082       .  S
C191        C194   1.489       .  S
C191        C192   1.402       .  A
C192        C193   1.400       .  A
C192        H200   1.083       .  S
C193        H201   1.081       .  S
C194        H202   1.086       .  S
C194        C195   1.345       .  D
C195        H203   1.085   1_655  S
C196        H204   1.087       .  S
C196        C197   1.344   1_655  D
C197        H205   1.085       .  S
N206        N207   1.316   1_455  A
N206        N212   1.315       .  A
N206       Mn235   2.173   1_465  S
N207        C214   1.346   1_655  A
N208        N210   1.316   1_565  A
N208        N209   1.321       .  A
N208       Mn224   2.201       .  S
N209        C215   1.354   1_565  A
N210        N211   1.320       .  A
N210       Mn235   2.207   1_455  S
N211        C215   1.351       .  A
N212        N213   1.323       .  A
N212       Mn224   2.216       .  S
N213        C214   1.356       .  A
C214        C382   1.467   1_455  S
C215        C276   1.474       .  S
N216        N222   1.318       .  A
N216        N217   1.316   1_565  A
N216       Mn246   2.187       .  S
N217        C225   1.346   1_545  A
N218        N219   1.317       .  A
N218        N220   1.316       .  A
N219        C226   1.348       .  A
N220        N221   1.326   1_455  A
N220       Mn246   2.227       .  S
N221        C226   1.358   1_655  A
N222        N223   1.325       .  A
N223        C225   1.357       .  A
Mn224      Cl248   2.554   1_565  S
C225        C294   1.471       .  S
C226        C402   1.476       .  S
N227        N228   1.315   1_655  A
N227        N233   1.315       .  A
N227       Mn235   2.174       .  S
N228        C236   1.345   1_455  A
N229        N231   1.315       .  A
N229        N230   1.318       .  A
N230        C237   1.349       .  A
N231        N232   1.325   1_545  A
N231       Mn235   2.217       .  S
N232        C237   1.357   1_565  A
N233        N234   1.325       .  A
N234        C236   1.358       .  A
Mn235      Cl248   2.538   1_655  S
C236        C348   1.467   1_655  S
C237        C310   1.475   1_545  S
N238        N239   1.319   1_545  A
N238        N244   1.315       .  A
N238       Mn246   2.191   1_645  S
N239        C249   1.350       .  A
N240        N241   1.319       .  A
N240        N242   1.317   1_655  A
N240       Mn247   2.194       .  S
N241        C250   1.351   1_655  A
N242        N243   1.324       .  A
N242       Mn246   2.229   1_545  S
N243        C250   1.356       .  A
N244        N245   1.321       .  A
N244       Mn247   2.206       .  S
N245        C249   1.354   1_545  A
C249        C330   1.471       .  S
C250        C364   1.481       .  S
C251        C400   1.489       .  S
C251        C252   1.416       .  A
C251        C256   1.413       .  A
C252        C384   1.480       .  S
C252        C253   1.395       .  A
C253        C254   1.394       .  A
C253        H258   1.086       .  S
C254        C346   1.475       .  S
C254        C255   1.412       .  A
C255        C366   1.485       .  S
C255        C256   1.411       .  A
C256        H257   1.083       .  S
C259        C312   1.488       .  S
C259        C260   1.414   1_565  A
C259        C264   1.409       .  A
C260        C328   1.483       .  S
C260        C261   1.394       .  A
C261        C262   1.398   1_545  A
C261        H266   1.086       .  S
C262        C292   1.483   1_565  S
C262        C263   1.421       .  A
C263        C274   1.487       .  S
C263        C264   1.410       .  A
C264        H265   1.084       .  S
C267        C275   1.486       .  S
C267        C268   1.403       .  A
C267        C272   1.407   1_565  A
C268        C269   1.399       .  A
C268        H277   1.084       .  S
C269        C270   1.409   1_565  A
C269        H278   1.080       .  S
C270        C273   1.489       .  S
C270        C271   1.404       .  A
C271        C272   1.398       .  A
C271        H279   1.084       .  S
C272        H280   1.081       .  S
C273        H281   1.086       .  S
C273        C274   1.347   1_545  D
C274        H282   1.083       .  S
C275        H283   1.087       .  S
C275        C276   1.345   1_565  D
C276        H284   1.085       .  S
C285        C293   1.483       .  S
C285        C286   1.400       .  A
C285        C290   1.409       .  A
C286        C287   1.397       .  A
C286        H295   1.083       .  S
C287        C288   1.408       .  A
C287        H296   1.083       .  S
C288        C291   1.480       .  S
C288        C289   1.400       .  A
C289        C290   1.399       .  A
C289        H297   1.084       .  S
C290        H298   1.083       .  S
C291        H299   1.086       .  S
C291        C292   1.342   1_565  D
C292        H300   1.087       .  S
C293        H301   1.087       .  S
C293        C294   1.340       .  D
C294        H302   1.087   1_565  S
C303        C311   1.488       .  S
C303        C304   1.403       .  A
C303        C308   1.409       .  A
C304        C305   1.401       .  A
C304        H313   1.083       .  S
C305        C306   1.409       .  A
C305        H314   1.082       .  S
C306        C309   1.487       .  S
C306        C307   1.402       .  A
C307        C308   1.398       .  A
C307        H315   1.084       .  S
C308        H316   1.082       .  S
C309        H317   1.087       .  S
C309        C310   1.343       .  D
C310        H318   1.086       .  S
C311        H319   1.086       .  S
C311        C312   1.345       .  D
C312        H320   1.085   1_565  S
C321        C329   1.482   1_565  S
C321        C322   1.401   1_565  A
C321        C326   1.406       .  A
C322        C323   1.396       .  A
C322        H331   1.084       .  S
C323        C324   1.408   1_545  A
C323        H332   1.080       .  S
C324        C327   1.485       .  S
C324        C325   1.404       .  A
C325        C326   1.398       .  A
C325        H333   1.083       .  S
C326        H334   1.082       .  S
C327        H335   1.087       .  S
C327        C328   1.345   1_565  D
C328        H336   1.084       .  S
C329        H337   1.087       .  S
C329        C330   1.343   1_545  D
C330        H338   1.085       .  S
C339        C347   1.488       .  S
C339        C340   1.402       .  A
C339        C344   1.411   1_655  A
C340        C341   1.398       .  A
C340        H349   1.083       .  S
C341        C342   1.410       .  A
C341        H350   1.080       .  S
C342        C345   1.484       .  S
C342        C343   1.400   1_655  A
C343        C344   1.395       .  A
C343        H351   1.084       .  S
C344        H352   1.080       .  S
C345        H353   1.088   1_655  S
C345        C346   1.342       .  D
C346        H354   1.084       .  S
C347        H355   1.087       .  S
C347        C348   1.341   1_655  D
C348        H356   1.083       .  S
C357        C365   1.488       .  S
C357        C358   1.404   1_655  A
C357        C362   1.406       .  A
C358        C359   1.402       .  A
C358        H367   1.083       .  S
C359        C360   1.407   1_455  A
C359        H368   1.082       .  S
C360        C363   1.489       .  S
C360        C361   1.405       .  A
C361        C362   1.401       .  A
C361        H369   1.084       .  S
C362        H370   1.083       .  S
C363        H371   1.087       .  S
C363        C364   1.349   1_655  D
C364        H372   1.085       .  S
C365        H373   1.087   1_655  S
C365        C366   1.346       .  D
C366        H374   1.086       .  S
C375        C383   1.482       .  S
C375        C376   1.400       .  A
C375        C380   1.408   1_655  A
C376        C377   1.396       .  A
C376        H385   1.083       .  S
C377        C378   1.409       .  A
C377        H386   1.081       .  S
C378        C381   1.483   1_655  S
C378        C379   1.401   1_655  A
C379        C380   1.397       .  A
C379        H387   1.083       .  S
C380        H388   1.082       .  S
C381        H389   1.087       .  S
C381        C382   1.340   1_455  D
C382        H390   1.085       .  S
C383        H391   1.087       .  S
C383        C384   1.342       .  D
C384        H392   1.085   1_655  S
C393        C401   1.492       .  S
C393        C394   1.403       .  A
C393        C398   1.409       .  A
C394        C395   1.401       .  A
C394        H403   1.083   1_655  S
C395        C396   1.410       .  A
C395        H404   1.082       .  S
C396        C399   1.489       .  S
C396        C397   1.402       .  A
C397        C398   1.400       .  A
C397        H405   1.083       .  S
C398        H406   1.081       .  S
C399        H407   1.087       .  S
C399        C400   1.345       .  D
C400        H408   1.085   1_655  S
C401        H409   1.087       .  S
C401        C402   1.344   1_655  D
C402        H410   1.085       .  S
