geometry optimzed in LAMMPS
_audit_creation_date              2020-11-30 
_audit_creation_method            'lammps2cif' 
_symmetry_space_group_name_H-M    'P1' 
_symmetry_Int_Tables_number       1 
_symmetry_cell_setting            triclinic 
loop_ 
_symmetry_equiv_pos_as_xyz 
  x,y,z 
_cell_length_a                    35.87358935 
_cell_length_b                    35.94627737048709 
_cell_length_c                    26.07508866643183 
_cell_angle_alpha                 90.51664435975032 
_cell_angle_beta                  89.85162173865757 
_cell_angle_gamma                 89.6911744682991 
loop_ 
_atom_site_label 
_atom_site_type_symbol 
_atom_site_fract_x 
_atom_site_fract_y 
_atom_site_fract_z 
_atom_site_charge 
O1          O  0.36195378  0.21727238  0.43129692    -0.84400
O2          O  0.29912047  0.25735030  0.41864100    -0.81500
C3          C  0.30355769  0.27939142  0.38156076     0.99000
O4          O  0.30578095  0.26730464  0.33598726    -0.81500
O5          O  0.32226855  0.21704945  0.25816357    -0.84100
C6          C  0.35731121  0.21281041  0.25891388     1.03600
O7          O  0.37314862  0.19787513  0.29666128    -0.76900
O8          O  0.38365746  0.16752063  0.39267169    -0.77100
C9          C  0.38881309  0.19635436  0.41959611     1.03500
O10         O  0.31824920  0.14995322  0.44798039    -0.84400
O11         O  0.25547593  0.19127474  0.42774230    -0.81500
C12         C  0.23216325  0.21065301  0.40372344     0.99100
O13         O  0.24118075  0.22652844  0.36257962    -0.81500
O14         O  0.26142728  0.17085550  0.29122840    -0.84100
C15         C  0.28100087  0.14603497  0.26913749     1.03500
O16         O  0.31580551  0.14568307  0.27620625    -0.76900
O17         O  0.32064650  0.12039880  0.37397705    -0.77100
C18         C  0.31537162  0.12023433  0.42169748     1.03500
Cr19       Cr  0.30918282  0.20305090  0.42637286     1.93700
Cr20       Cr  0.28482107  0.21835004  0.31540577     1.93200
Cr21       Cr  0.34581230  0.16054587  0.33697985     1.39100
O22         O  0.31322877  0.19411254  0.35978454    -1.22200
C23         C  0.25255934  0.02154948  0.01519413     0.04100
C24         C  0.25091445  0.03092716  0.06779389    -0.12100
C25         C  0.24045618  0.06700146  0.08408470     0.01600
C26         C  0.22956276  0.09274295  0.04698746    -0.10600
C27         C  0.23032521  0.08363242  0.99466380     0.04000
C28         C  0.24099690  0.04787557  0.97889970    -0.10000
H29         H  0.26008326  0.01085757  0.09584129     0.09600
H30         H  0.22390388  0.12132275  0.05827525     0.07200
H31         H  0.24287560  0.04145479  0.93827210     0.07000
C32         C  0.47336157  0.23549803  0.99807793     0.04100
C33         C  0.46041788  0.23194209  0.04854602    -0.12100
C34         C  0.42384039  0.24216582  0.06161121     0.01600
C35         C  0.40025896  0.25667643  0.02390778    -0.10600
C36         C  0.41278484  0.26076617  0.97330679     0.04000
C37         C  0.44935319  0.24987749  0.96032320    -0.10000
H38         H  0.47861072  0.22036249  0.07752831     0.09600
H39         H  0.37165034  0.26376412  0.03360621     0.07200
H40         H  0.45894934  0.25228610  0.92111739     0.07000
O41         O  0.28591929  0.85436635  0.93589519    -0.84400
O42         O  0.24323494  0.79583294  0.91138761    -0.81500
C43         C  0.22119975  0.80652886  0.87663567     0.99000
O44         O  0.23315801  0.81419587  0.83275519    -0.81500
O45         O  0.28254020  0.83643631  0.76012608    -0.84100
C46         C  0.29092970  0.87015322  0.76775234     1.03600
O47         O  0.30848178  0.88010849  0.80730782    -0.76900
O48         O  0.33760385  0.87647459  0.90539649    -0.77100
C49         C  0.30840656  0.88077486  0.93237687     1.03500
O50         O  0.35170645  0.80678273  0.94441080    -0.84400
O51         O  0.30833093  0.74899978  0.90974112    -0.81500
C52         C  0.28714446  0.72974355  0.88195749     0.99100
O53         O  0.27107246  0.74398611  0.84345962    -0.81500
O54         O  0.32444691  0.76967776  0.77233339    -0.84100
C55         C  0.34901805  0.79036334  0.75293606     1.03500
O56         O  0.35630256  0.82177179  0.77268842    -0.76900
O57         O  0.38175502  0.81287645  0.87175283    -0.77100
C58         C  0.38168337  0.80457290  0.91859050     1.03500
Cr59       Cr  0.29826659  0.80241319  0.92044406     1.93700
Cr60       Cr  0.28014495  0.79248457  0.80622607     1.93200
Cr61       Cr  0.34331110  0.84514231  0.84078158     1.39100
O62         O  0.30737656  0.81309719  0.85558947    -1.22200
C63         C  0.47017202  0.76357246  0.49320382     0.04100
C64         C  0.44810163  0.74411319  0.45730429    -0.12100
C65         C  0.41198382  0.73224071  0.47045516     0.01600
C66         C  0.39894737  0.73910079  0.52051520    -0.10600
C67         C  0.42047406  0.75831253  0.55682048     0.04000
C68         C  0.45615599  0.77057077  0.54286217    -0.10000
H69         H  0.45902051  0.73857839  0.41922613     0.09600
H70         H  0.37101011  0.73058264  0.53095470     0.07200
H71         H  0.47265862  0.78631613  0.57010301     0.07000
C72         C  0.27020238  0.97702633  0.50078335     0.04100
C73         C  0.25664894  0.94886287  0.46796971    -0.12100
C74         C  0.24744234  0.91359612  0.48743706     0.01600
C75         C  0.25200404  0.90733413  0.54030453    -0.10600
C76         C  0.26451541  0.93559462  0.57332700     0.04000
C77         C  0.27356506  0.97034972  0.55341978    -0.10000
H78         H  0.25325385  0.95455806  0.42713266     0.09600
H79         H  0.24622622  0.88004943  0.55584816     0.07200
H80         H  0.28399993  0.99184774  0.57856609     0.07000
O81         O  0.64418467  0.78745914  0.43081587    -0.84400
O82         O  0.70702280  0.74655517  0.41227148    -0.81500
C83         C  0.70181729  0.72556411  0.37358191     0.99000
O84         O  0.69981366  0.73903878  0.32913924    -0.81500
O85         O  0.67919367  0.79078785  0.25710752    -0.84100
C86         C  0.64419920  0.79534479  0.26102340     1.03600
O87         O  0.63002066  0.81102116  0.29994838    -0.76900
O88         O  0.62363448  0.83932623  0.39907852    -0.77100
C89         C  0.61773816  0.81008957  0.42436439     1.03500
O90         O  0.68889910  0.85373368  0.45020499    -0.84400
O91         O  0.75152188  0.81306960  0.42429934    -0.81500
C92         C  0.77511813  0.79656875  0.39612676     0.99100
O93         O  0.76496525  0.78133853  0.35449847    -0.81500
O94         O  0.74148060  0.83685204  0.28791044    -0.84100
C95         C  0.72161028  0.86168341  0.26737836     1.03500
O96         O  0.68720112  0.86289353  0.27779102    -0.76900
O97         O  0.68716381  0.88506331  0.37846305    -0.77100
C98         C  0.69214508  0.88413032  0.42619650     1.03500
Cr99       Cr  0.69744040  0.80111078  0.42433596     1.93700
Cr100      Cr  0.71926458  0.78896341  0.31095500     1.93200
Cr101      Cr  0.65956861  0.84676409  0.34053504     1.39100
O102        O  0.69211260  0.81197482  0.35869224    -1.22200
C103        C  0.75157456  0.97858671  0.00822666     0.04100
C104        C  0.75712156  0.94909056  0.97291753    -0.12100
C105        C  0.76406619  0.91288504  0.99031095     0.01600
C106        C  0.76603830  0.90654230  0.04319193    -0.10600
C107        C  0.76025453  0.93521769  0.07913311     0.04000
C108        C  0.75419349  0.97159392  0.06120231    -0.10000
H109        H  0.75409532  0.95399553  0.93219441     0.09600
H110        H  0.76976542  0.87827954  0.05646406     0.07200
H111        H  0.74936178  0.99410168  0.08835666     0.07000
C112        C  0.52390273  0.75712851  0.00442529     0.04100
C113        C  0.53406976  0.76400849  0.05565387    -0.12100
C114        C  0.56992476  0.75457123  0.07300357     0.01600
C115        C  0.59530653  0.73793630  0.03880566    -0.10600
C116        C  0.58552036  0.73009546  0.98780001     0.04000
C117        C  0.54952138  0.73967178  0.97080309    -0.10000
H118        H  0.51450450  0.77763376  0.08149033     0.09600
H119        H  0.62345235  0.73209450  0.05165650     0.07200
H120        H  0.54169470  0.73434418  0.93137445     0.07000
O121        O  0.69772892  0.15093884  0.95301276    -0.84400
O122        O  0.75640732  0.19372472  0.92170593    -0.81500
C123        C  0.77735293  0.21219143  0.89280881     0.99000
O124        O  0.76478613  0.22693378  0.85231908    -0.81500
O125        O  0.73986369  0.17252586  0.78327597    -0.84100
C126        C  0.71913394  0.14807435  0.76365102     1.03600
O127        O  0.68690745  0.14240397  0.78108556    -0.76900
O128        O  0.69452694  0.11990849  0.88039645    -0.77100
C129        C  0.70159932  0.12085182  0.92765886     1.03500
O130        O  0.64930694  0.21627660  0.93915561    -0.84400
O131        O  0.70979246  0.25808065  0.91685686    -0.81500
C132        C  0.70170217  0.27918335  0.87999928     0.99100
O133        O  0.69605645  0.26640188  0.83576435    -0.81500
O134        O  0.67387228  0.21521959  0.76435139    -0.84100
C135        C  0.63968544  0.20775131  0.77028805     1.03500
O136        O  0.62833870  0.19121187  0.80988289    -0.76900
O137        O  0.63035319  0.16320707  0.90940481    -0.77100
C138        C  0.62359026  0.19297512  0.93383497     1.03500
Cr139      Cr  0.70247167  0.20379293  0.92774703     1.93700
Cr140      Cr  0.71697387  0.21814899  0.81300605     1.93200
Cr141      Cr  0.66253433  0.15700898  0.84678898     1.39100
O142        O  0.69419694  0.19310188  0.86235891    -1.22200
C143        C  0.53109228  0.24101056  0.50525607     0.04100
C144        C  0.53758304  0.23794521  0.55833189    -0.12100
C145        C  0.57257806  0.24681727  0.57890954     0.01600
C146        C  0.60053086  0.26072998  0.54685213    -0.10600
C147        C  0.59436203  0.26420928  0.49413931     0.04000
C148        C  0.55989695  0.25388872  0.47348507    -0.10000
H149        H  0.51611446  0.22705250  0.58323779     0.09600
H150        H  0.62796731  0.26636514  0.56236364     0.07200
H151        H  0.55599879  0.25473880  0.43230495     0.07000
C152        C  0.74539367  0.02469798  0.50596694     0.04100
C153        C  0.73543318  0.03906655  0.55429838    -0.12100
C154        C  0.74747651  0.07442096  0.56961412     0.01600
C155        C  0.76860558  0.09545754  0.53540521    -0.10600
C156        C  0.77756625  0.08264106  0.48588497     0.04000
C157        C  0.76668982  0.04633951  0.47188074    -0.10000
H158        H  0.71754176  0.02305268  0.57920699     0.09600
H159        H  0.77688781  0.12316905  0.54710219     0.07200
H160        H  0.77385530  0.03511739  0.43446659     0.07000
O161        O  0.81602087  0.35361523  0.43843020    -0.84400
O162        O  0.75318782  0.31316083  0.41208279    -0.81500
C163        C  0.73155456  0.29283261  0.38611272     0.99000
O164        O  0.74421051  0.27375795  0.34874327    -0.81500
O165        O  0.77217959  0.32007037  0.27223453    -0.84100
C166        C  0.79364622  0.34297258  0.25060033     1.03600
O167        O  0.82690998  0.34651906  0.26596912    -0.76900
O168        O  0.82223413  0.37840776  0.36253955    -0.77100
C169        C  0.81520605  0.38199134  0.40978251     1.03500
O170        O  0.85803856  0.28385900  0.43433370    -0.84400
O171        O  0.79476262  0.24488014  0.41888505    -0.81500
C172        C  0.80435842  0.22006254  0.38663873     0.99100
O173        O  0.81058833  0.22869587  0.34059611    -0.81500
O174        O  0.83556727  0.27093488  0.26019559    -0.84100
C175        C  0.87018885  0.27526850  0.26759726     1.03500
O176        O  0.88153049  0.29508357  0.30435482    -0.76900
O177        O  0.88292464  0.33159586  0.39660356    -0.77100
C178        C  0.88619504  0.30306303  0.42418987     1.03500
Cr179      Cr  0.80632168  0.29952287  0.42087749     1.93700
Cr180      Cr  0.79231618  0.27568163  0.30900820     1.93200
Cr181      Cr  0.85055741  0.33551608  0.33405195     1.39100
O182        O  0.81601339  0.30375224  0.35453743    -1.22200
C183        C  0.98504095  0.24228755  0.00881021     0.04100
C184        C  0.97837811  0.23965341  0.06177311    -0.12100
C185        C  0.94228932  0.23331054  0.08053132     0.01600
C186        C  0.91346570  0.22670652  0.04545946    -0.10600
C187        C  0.91959169  0.22854018  0.99235404     0.04000
C188        C  0.95558479  0.23612223  0.97409823    -0.10000
H189        H  0.00078504  0.24534927  0.08845737     0.09600
H190        H  0.88527184  0.22298255  0.05952659     0.07200
H191        H  0.96021364  0.23939931  0.93332365     0.07000
C192        C  0.75490857  0.47402485  0.00421606     0.04100
C193        C  0.73977194  0.44935582  0.96780558    -0.12100
C194        C  0.72823946  0.41383741  0.98175939     0.01600
C195        C  0.73194795  0.40243277  0.03265409    -0.10600
C196        C  0.74798791  0.42581928  0.06957933     0.04000
C197        C  0.75899395  0.46200096  0.05551499    -0.10000
H198        H  0.73811820  0.45732291  0.92786765     0.09600
H199        H  0.72500582  0.37408328  0.04270169     0.07200
H200        H  0.77206397  0.47993362  0.08369923     0.07000
O201        O  0.15793714  0.28154923  0.94044731    -0.84400
O202        O  0.22380334  0.24826436  0.91533035    -0.81500
C203        C  0.21442522  0.22164785  0.88668244     0.99000
O204        O  0.20132797  0.22800572  0.84259946    -0.81500
O205        O  0.16656233  0.26808391  0.76508322    -0.84100
C206        C  0.13246948  0.27253787  0.77619679     1.03600
O207        O  0.12297812  0.29278686  0.81379621    -0.76900
O208        O  0.12839819  0.32805074  0.90686486    -0.77100
C209        C  0.12786747  0.29919963  0.93424327     1.03500
O210        O  0.19416173  0.35285076  0.93831945    -0.84400
O211        O  0.25845259  0.31735926  0.90028906    -0.81500
C212        C  0.27872308  0.29750072  0.87084060     0.99100
O213        O  0.26379208  0.27733719  0.83668470    -0.81500
O214        O  0.22715251  0.31955324  0.76478576    -0.84100
C215        C  0.20364931  0.34256697  0.74763568     1.03500
O216        O  0.17201892  0.34597090  0.76867272    -0.76900
O217        O  0.18359943  0.37768005  0.86385516    -0.77100
C218        C  0.19373665  0.38106902  0.90995877     1.03500
Cr219      Cr  0.20724959  0.30055912  0.91866241     1.93700
Cr220      Cr  0.21299222  0.27542884  0.80601059     1.93200
Cr221      Cr  0.15466210  0.33389881  0.83955023     1.39100
O222        O  0.19186455  0.30333269  0.85434749    -1.22200
C223        C  0.23199622  0.47326683  0.49852855     0.04100
C224        C  0.25149361  0.45083137  0.46272349    -0.12100
C225        C  0.26347701  0.41490992  0.47604859     0.01600
C226        C  0.25606951  0.40192072  0.52562772    -0.10600
C227        C  0.23748263  0.42409791  0.56184731     0.04000
C228        C  0.22519606  0.45978834  0.54818477    -0.10000
H229        H  0.25696506  0.46123244  0.42461017     0.09600
H230        H  0.26402275  0.37380267  0.53584521     0.07200
H231        H  0.20974577  0.47665709  0.57564508     0.07000
C232        C  0.02508912  0.25197877  0.51270907     0.04100
C233        C  0.05647376  0.24511970  0.48178730    -0.12100
C234        C  0.09065814  0.23636068  0.50432352     0.01600
C235        C  0.09352064  0.23538762  0.55773587    -0.10600
C236        C  0.06219091  0.24080495  0.58949828     0.04000
C237        C  0.02760831  0.24833231  0.56628454    -0.10000
H238        H  0.05456319  0.24781654  0.44046161     0.09600
H239        H  0.12077439  0.23108795  0.57458167     0.07200
H240        H  0.00284171  0.25227189  0.58948829     0.07000
O241        O  0.21372409  0.64426230  0.42502124    -0.84400
O242        O  0.25612181  0.70495003  0.40743719    -0.81500
C243        C  0.27812357  0.69884099  0.37024722     0.99000
O244        O  0.26611179  0.69640064  0.32498303    -0.81500
O245        O  0.21724696  0.67259834  0.25144730    -0.84100
C246        C  0.21253889  0.63790871  0.25770136     1.03600
O247        O  0.19499820  0.62599809  0.29629321    -0.76900
O248        O  0.16160649  0.62486632  0.39305078    -0.77100
C249        C  0.19024113  0.61873439  0.41983206     1.03500
O250        O  0.14747302  0.69161815  0.43780410    -0.84400
O251        O  0.19103893  0.75145593  0.41351581    -0.81500
C252        C  0.20818088  0.77409503  0.38546956     0.99100
O253        O  0.22265429  0.76263757  0.34371437    -0.81500
O254        O  0.16987067  0.73669164  0.27287732    -0.84100
C255        C  0.14606524  0.71586878  0.25162720     1.03500
O256        O  0.14452053  0.68231622  0.26513196    -0.76900
O257        O  0.11805832  0.68877304  0.36399771    -0.77100
C258        C  0.11811463  0.69613056  0.41137099     1.03500
Cr259      Cr  0.20125372  0.69740913  0.41579360     1.93700
Cr260      Cr  0.21682205  0.71529619  0.30207570     1.93200
Cr261      Cr  0.15752150  0.65804409  0.33130800     1.39100
O262        O  0.19210013  0.69053303  0.34978220    -1.22200
C263        C  0.02371834  0.75134829  0.99464230     0.04100
C264        C  0.03458635  0.74831410  0.04617992    -0.12100
C265        C  0.07105153  0.75762800  0.06143951     0.01600
C266        C  0.09562250  0.77196637  0.02470423    -0.10600
C267        C  0.08450228  0.77685848  0.97360797     0.04000
C268        C  0.04853253  0.76623765  0.95862579    -0.10000
H269        H  0.01514814  0.73710868  0.07384114     0.09600
H270        H  0.12413913  0.77806335  0.03541262     0.07200
H271        H  0.04019797  0.76862692  0.91887817     0.07000
C272        C  0.24041836  0.52501528  0.99182433     0.04100
C273        C  0.25172126  0.55361815  0.95875014    -0.12100
C274        C  0.26014041  0.58893485  0.97854220     0.01600
C275        C  0.25849463  0.59516270  0.03166333    -0.10600
C276        C  0.24718204  0.56718550  0.06526336     0.04000
C277        C  0.23850946  0.53196688  0.04503792    -0.10000
H278        H  0.25226152  0.54891050  0.91765245     0.09600
H279        H  0.26367675  0.62291802  0.04658124     0.07200
H280        H  0.22918621  0.51024646  0.07050419     0.07000
O281        O  0.85043001  0.71088814  0.93596799    -0.84400
O282        O  0.78251757  0.74435023  0.92125623    -0.81500
C283        C  0.78720692  0.77038932  0.88993454     0.99000
O284        O  0.79884948  0.76287588  0.84521021    -0.81500
O285        O  0.83017519  0.72071720  0.76406440    -0.84100
C286        C  0.86450189  0.71209527  0.76715045     1.03600
O287        O  0.87649282  0.69227237  0.80316474    -0.76900
O288        O  0.87747975  0.66319107  0.89954021    -0.77100
C289        C  0.87989991  0.69320583  0.92536418     1.03500
O290        O  0.81400411  0.63951526  0.94246306    -0.84400
O291        O  0.74809336  0.67460012  0.91346734    -0.81500
C292        C  0.72511863  0.69336937  0.88745034     0.99100
O293        O  0.73695359  0.71241534  0.84989624    -0.81500
O294        O  0.76877947  0.67063845  0.77035164    -0.84100
C295        C  0.79081775  0.64709085  0.75051082     1.03500
O296        O  0.82216174  0.64057516  0.77037694    -0.76900
O297        O  0.81692151  0.61278789  0.86730430    -0.77100
C298        C  0.81021329  0.61095534  0.91451543     1.03500
Cr299      Cr  0.79993241  0.69173790  0.92296457     1.93700
Cr300      Cr  0.78581128  0.71445075  0.81114044     1.93200
Cr301      Cr  0.84532895  0.65456670  0.83720824     1.39100
O302        O  0.81029044  0.68709079  0.85649323    -1.22200
C303        C  0.77272548  0.53099992  0.48193524     0.04100
C304        C  0.75262128  0.55384824  0.44792793    -0.12100
C305        C  0.74041597  0.58951104  0.46347741     0.01600
C306        C  0.74737198  0.60115100  0.51408709    -0.10600
C307        C  0.76825586  0.57955709  0.54840519     0.04000
C308        C  0.78123299  0.54439518  0.53155961    -0.10000
H309        H  0.74642326  0.54373700  0.40965702     0.09600
H310        H  0.73707843  0.62814232  0.52662886     0.07200
H311        H  0.79814681  0.52744337  0.55660772     0.07000
C312        C  0.98085662  0.75040641  0.50837337     0.04100
C313        C  0.97316994  0.74753165  0.56137450    -0.12100
C314        C  0.93765234  0.75668565  0.58090236     0.01600
C315        C  0.91050059  0.77108054  0.54815261    -0.10600
C316        C  0.91745499  0.77448474  0.49564923     0.04000
C317        C  0.95244789  0.76380365  0.47583210    -0.10000
H318        H  0.99401961  0.73641264  0.58706890     0.09600
H319        H  0.88269286  0.77662163  0.56288196     0.07200
H320        H  0.95691904  0.76438567  0.43473051     0.07000
C321        C  0.92539249  0.74370511  0.63221731    -0.04400
C322        C  0.92433451  0.76798698  0.67506800    -0.01500
C323        C  0.90734198  0.75652761  0.72135849     0.03500
C324        C  0.88986317  0.72156516  0.72405631    -0.04400
C325        C  0.89424356  0.69608774  0.68284375    -0.01500
C326        C  0.91099393  0.70742159  0.63670535     0.03500
C327        C  0.93951563  0.80509246  0.67086560     0.38100
C328        C  0.88253133  0.65774946  0.68782265     0.38100
C329        C  0.91127945  0.68236825  0.59268567     0.36500
C330        C  0.91027919  0.77928311  0.76718760     0.36500
N331        N  0.91102290  0.66245683  0.55756559    -0.38300
N332        N  0.91412838  0.79673141  0.80427261    -0.38300
N333        N  0.87447740  0.62669371  0.69046958    -0.37700
N334        N  0.95143394  0.83481191  0.66731803    -0.37700
C335        C  0.78241041  0.62966989  0.69990457    -0.04400
C336        C  0.77443065  0.59139533  0.69549279    -0.01500
C337        C  0.77004532  0.57452384  0.64648374     0.03500
C338        C  0.77639062  0.59526683  0.60113950    -0.04400
C339        C  0.78777604  0.63290002  0.60640691    -0.01500
C340        C  0.78828430  0.65045403  0.65497513     0.03500
C341        C  0.77043368  0.56942538  0.74155165     0.38100
C342        C  0.80083848  0.65344048  0.56213309     0.38100
C343        C  0.79563474  0.69007294  0.65836555     0.36500
C344        C  0.75868982  0.53595687  0.64348206     0.36500
N345        N  0.80112145  0.72175799  0.65994628    -0.38300
N346        N  0.74995631  0.50502790  0.64190617    -0.38300
N347        N  0.81133331  0.66989812  0.52702611    -0.37700
N348        N  0.76746103  0.55176634  0.77821279    -0.37700
C349        C  0.98711026  0.73643577  0.97752780    -0.04400
C350        C  0.98439447  0.69951034  0.95932550    -0.01500
C351        C  0.94986060  0.68527520  0.94213702     0.03500
C352        C  0.91713002  0.70789816  0.94344583    -0.04400
C353        C  0.92069419  0.74561600  0.96050237    -0.01500
C354        C  0.95526420  0.75933873  0.97812300     0.03500
C355        C  0.01743425  0.67600862  0.95830833     0.38100
C356        C  0.88962992  0.77157130  0.95789701     0.38100
C357        C  0.95825491  0.79742085  0.99666390     0.36500
C358        C  0.94891461  0.64747414  0.92221096     0.36500
N359        N  0.96063447  0.82773146  0.01158257    -0.38300
N360        N  0.94864279  0.61745045  0.90579282    -0.38300
N361        N  0.86522628  0.79268725  0.95582359    -0.37700
N362        N  0.04369960  0.65717639  0.95755344    -0.37700
C363        C  0.12179870  0.72891344  0.20768804    -0.04400
C364        C  0.12297919  0.76606063  0.18950690    -0.01500
C365        C  0.10408448  0.77602003  0.14386205     0.03500
C366        C  0.08533304  0.74883349  0.11410583    -0.04400
C367        C  0.08231284  0.71245121  0.13355301    -0.01500
C368        C  0.09834409  0.70325509  0.18116043     0.03500
C369        C  0.14290517  0.79461070  0.21776796     0.38100
C370        C  0.06410842  0.68346869  0.10371184     0.38100
C371        C  0.08898444  0.66743392  0.20278973     0.36500
C372        C  0.10348413  0.81458932  0.12793225     0.36500
N373        N  0.08043481  0.63910282  0.21977820    -0.38300
N374        N  0.10287610  0.84543540  0.11563435    -0.38300
N375        N  0.04963141  0.66016992  0.08035110    -0.37700
N376        N  0.15867894  0.81754649  0.24019714    -0.37700
C377        C  0.22439442  0.61190186  0.21600221    -0.04400
C378        C  0.26071915  0.61380285  0.19522256    -0.01500
C379        C  0.26930099  0.59524838  0.14868313     0.03500
C380        C  0.24095569  0.57699757  0.12056738    -0.04400
C381        C  0.20537469  0.57277548  0.14341753    -0.01500
C382        C  0.19776605  0.58882677  0.19195873     0.03500
C383        C  0.28925365  0.63509886  0.22146655     0.38100
C384        C  0.17546234  0.55459015  0.11565868     0.38100
C385        C  0.16177423  0.58293379  0.21586220     0.36500
C386        C  0.30722484  0.59542124  0.12917647     0.36500
N387        N  0.13330908  0.57748977  0.23525099    -0.38300
N388        N  0.33745510  0.59532944  0.11356380    -0.38300
N389        N  0.15143066  0.54023700  0.09368841    -0.37700
N390        N  0.31219366  0.65204270  0.24210354    -0.37700
C391        C  0.01731060  0.73688389  0.48573068    -0.04400
C392        C  0.03133687  0.70064101  0.49614263    -0.01500
C393        C  0.06451502  0.68761735  0.47238709     0.03500
C394        C  0.08331353  0.70981369  0.43647007    -0.04400
C395        C  0.06911178  0.74543547  0.42492969    -0.01500
C396        C  0.03735730  0.75952531  0.45101854     0.03500
C397        C  0.01156480  0.67597093  0.53030062     0.38100
C398        C  0.08755034  0.76784272  0.38646236     0.38100
C399        C  0.02646394  0.79804360  0.44377740     0.36500
C400        C  0.07858337  0.65056543  0.48320819     0.36500
N401        N  0.01802269  0.82887243  0.43832097    -0.38300
N402        N  0.08985213  0.62101049  0.49157206    -0.38300
N403        N  0.10231871  0.78555347  0.35570500    -0.37700
N404        N  0.99653330  0.65591107  0.55786241    -0.37700
C405        C  0.21792156  0.51064554  0.48314163    -0.04400
C406        C  0.18914518  0.51370050  0.44667912    -0.01500
C407        C  0.17966583  0.54868847  0.42593846     0.03500
C408        C  0.19670915  0.58166374  0.44492204    -0.04400
C409        C  0.22156389  0.57856661  0.48712043    -0.01500
C410        C  0.23350054  0.54326531  0.50416437     0.03500
C411        C  0.16809376  0.48090739  0.43223453     0.38100
C412        C  0.23423705  0.61149942  0.51442405     0.38100
C413        C  0.26252366  0.54050663  0.54262228     0.36500
C414        C  0.15292862  0.54998506  0.38436317     0.36500
N415        N  0.28579759  0.53824646  0.57310445    -0.38300
N416        N  0.13157222  0.55063271  0.35118958    -0.38300
N417        N  0.24436121  0.63770537  0.53630464    -0.37700
N418        N  0.15055216  0.45502171  0.42176232    -0.37700
C419        C  0.10399860  0.25690193  0.74059696    -0.04400
C420        C  0.07338373  0.27904623  0.72505721    -0.01500
C421        C  0.05628802  0.27216585  0.67713952     0.03500
C422        C  0.06793518  0.24139534  0.64653498    -0.04400
C423        C  0.09184784  0.21455814  0.66873558    -0.01500
C424        C  0.11110845  0.22299936  0.71435118     0.03500
C425        C  0.06205791  0.31137648  0.75517785     0.38100
C426        C  0.09847369  0.17918626  0.64282284     0.38100
C427        C  0.13984131  0.19772031  0.73225187     0.36500
C428        C  0.02928359  0.29883632  0.65828538     0.36500
N429        N  0.16303316  0.17753968  0.74562004    -0.38300
N430        N  0.00757673  0.32036982  0.64427689    -0.38300
N431        N  0.10389739  0.15108633  0.62202791    -0.37700
N432        N  0.05299069  0.33716270  0.77911193    -0.37700
C433        C  0.21224316  0.36517708  0.70122679    -0.04400
C434        C  0.18464774  0.37066713  0.66309112    -0.01500
C435        C  0.19216130  0.39265631  0.61980186     0.03500
C436        C  0.22797088  0.40745912  0.61221285    -0.04400
C437        C  0.25575153  0.40189353  0.64969231    -0.01500
C438        C  0.24766486  0.38171887  0.69468407     0.03500
C439        C  0.14913245  0.35183023  0.66608249     0.38100
C440        C  0.29278061  0.41677261  0.64166679     0.38100
C441        C  0.27555272  0.37885962  0.73467290     0.36500
C442        C  0.16326470  0.39921438  0.58199132     0.36500
N443        N  0.29769537  0.37679986  0.76674688    -0.38300
N444        N  0.14028873  0.40486219  0.55192987    -0.38300
N445        N  0.32236393  0.42852792  0.63512741    -0.37700
N446        N  0.12073425  0.33681660  0.66714137    -0.37700
C447        C  0.20492506  0.41799843  0.93170551    -0.04400
C448        C  0.18709426  0.45115484  0.91570410    -0.01500
C449        C  0.19848341  0.48599246  0.93552320     0.03500
C450        C  0.22836536  0.48824997  0.97073535    -0.04400
C451        C  0.24575032  0.45519812  0.98743353    -0.01500
C452        C  0.23359249  0.42029444  0.96910308     0.03500
C453        C  0.15556101  0.44948712  0.88099885     0.38100
C454        C  0.27679800  0.45704925  0.02300753     0.38100
C455        C  0.25098476  0.38692269  0.98927271     0.36500
C456        C  0.17835465  0.51943321  0.92110891     0.36500
N457        N  0.26477723  0.36053119  0.00606871    -0.38300
N458        N  0.16229299  0.54609520  0.90966832    -0.38300
N459        N  0.30145365  0.45853871  0.05147784    -0.37700
N460        N  0.13031767  0.44813837  0.85350029    -0.37700
C461        C  0.76869143  0.51099244  0.98582627    -0.04400
C462        C  0.80650324  0.52143036  0.99200873    -0.01500
C463        C  0.82019986  0.55403769  0.96857364     0.03500
C464        C  0.79675545  0.57574223  0.93730895    -0.04400
C465        C  0.75957955  0.56460945  0.92933122    -0.01500
C466        C  0.74510316  0.53366070  0.95549554     0.03500
C467        C  0.83190380  0.49801341  0.02061008     0.38100
C468        C  0.73627360  0.58457432  0.89326808     0.38100
C469        C  0.70559388  0.52553024  0.95168891     0.36500
C470        C  0.85909395  0.56407920  0.97396709     0.36500
N471        N  0.67408658  0.51910672  0.94876612    -0.38300
N472        N  0.89021733  0.57188613  0.97782938    -0.38300
N473        N  0.71763125  0.60014680  0.86423954    -0.37700
N474        N  0.85231236  0.47951749  0.04352444    -0.37700
C475        C  0.02165015  0.25677841  0.99061369    -0.04400
C476        C  0.05488342  0.23679254  0.99954221    -0.01500
C477        C  0.08957134  0.25076292  0.98265688     0.03500
C478        C  0.09169324  0.28580701  0.95750168    -0.04400
C479        C  0.05806751  0.30670805  0.95160056    -0.01500
C480        C  0.02348115  0.29197473  0.96727734     0.03500
C481        C  0.05331478  0.20136265  0.02578426     0.38100
C482        C  0.05827528  0.34383112  0.93005531     0.38100
C483        C  0.98956957  0.31365660  0.96033181     0.36500
C484        C  0.12264797  0.22821656  0.99120025     0.36500
N485        N  0.96252770  0.33080659  0.95456997    -0.38300
N486        N  0.14877869  0.20994372  0.99824033    -0.38300
N487        N  0.05815631  0.37346531  0.91303395    -0.37700
N488        N  0.05207534  0.17329496  0.04710534    -0.37700
C489        C  0.89712519  0.26023540  0.22914233    -0.04400
C490        C  0.89263980  0.22403801  0.20874750    -0.01500
C491        C  0.91057210  0.21369888  0.16248016     0.03500
C492        C  0.93254417  0.23981084  0.13575922    -0.04400
C493        C  0.94036094  0.27455858  0.15950419    -0.01500
C494        C  0.92368150  0.28414313  0.20689253     0.03500
C495        C  0.86951956  0.19743788  0.23542214     0.38100
C496        C  0.96218433  0.30237573  0.13300838     0.38100
C497        C  0.93077954  0.32050224  0.22949494     0.36500
C498        C  0.90520970  0.17663221  0.14135757     0.36500
N499        N  0.93632825  0.34951276  0.24742184    -0.38300
N500        N  0.90074520  0.14711670  0.12444447    -0.38300
N501        N  0.97943019  0.32469028  0.11193468    -0.37700
N502        N  0.85141632  0.17598957  0.25682391    -0.37700
C503        C  0.78118504  0.36483124  0.20489819    -0.04400
C504        C  0.74735127  0.38535476  0.20519287    -0.01500
C505        C  0.73678906  0.40657957  0.16181511     0.03500
C506        C  0.76044597  0.40840497  0.11850172    -0.04400
C507        C  0.79425135  0.38825551  0.11842626    -0.01500
C508        C  0.80411490  0.36601927  0.16061006     0.03500
C509        C  0.72359946  0.38499206  0.25023589     0.38100
C510        C  0.81834160  0.38938481  0.07358272     0.38100
C511        C  0.83653325  0.34209076  0.15608425     0.36500
C512        C  0.70131453  0.42601382  0.16124710     0.36500
N513        N  0.86210800  0.32280937  0.15043696    -0.38300
N514        N  0.67293103  0.44145493  0.16065389    -0.38300
N515        N  0.83722188  0.39060532  0.03759655    -0.37700
N516        N  0.70470747  0.38468761  0.28627630    -0.37700
C517        C  0.80642173  0.41993990  0.43163541    -0.04400
C518        C  0.82473700  0.45191364  0.41262272    -0.01500
C519        C  0.81439177  0.48794824  0.43001466     0.03500
C520        C  0.78493968  0.49277885  0.46548847    -0.04400
C521        C  0.76731684  0.46101199  0.48561949    -0.01500
C522        C  0.77885570  0.42483327  0.47028430     0.03500
C523        C  0.85558086  0.44784666  0.37684873     0.38100
C524        C  0.73614541  0.46556128  0.52069843     0.38100
C525        C  0.76204785  0.39285042  0.49454232     0.36500
C526        C  0.83492393  0.52008071  0.41249792     0.36500
N527        N  0.74886311  0.36747606  0.51455731    -0.38300
N528        N  0.85179437  0.54550688  0.39886127    -0.38300
N529        N  0.71094675  0.46906707  0.54814710    -0.37700
N530        N  0.88025832  0.44460249  0.34844845    -0.37700
C531        C  0.99007315  0.26542266  0.48889771    -0.04400
C532        C  0.96756379  0.24070769  0.46066256    -0.01500
C533        C  0.93477413  0.25373851  0.43708706     0.03500
C534        C  0.92309593  0.29115000  0.44408409    -0.04400
C535        C  0.94653701  0.31627977  0.47041067    -0.01500
C536        C  0.98019597  0.30349362  0.49220668     0.03500
C537        C  0.97815222  0.20180202  0.45599776     0.38100
C538        C  0.93605707  0.35517393  0.47531597     0.38100
C539        C  0.00531757  0.32967713  0.51663449     0.36500
C540        C  0.91430120  0.22911233  0.40303881     0.36500
N541        N  0.02560886  0.35057038  0.53559856    -0.38300
N542        N  0.89838292  0.20947651  0.37544377    -0.38300
N543        N  0.92780821  0.38625779  0.47899134    -0.37700
N544        N  0.98660213  0.17076931  0.45242880    -0.37700
C545        C  0.79507519  0.11001749  0.44969936    -0.04400
C546        C  0.77921485  0.11796391  0.40119703    -0.01500
C547        C  0.78710625  0.15211481  0.37674561     0.03500
C548        C  0.80648318  0.18041270  0.40353427    -0.04400
C549        C  0.82524674  0.17090156  0.44930919    -0.01500
C550        C  0.82236413  0.13466825  0.46908734     0.03500
C551        C  0.75295838  0.09265400  0.37751380     0.38100
C552        C  0.84617470  0.19842392  0.47802647     0.38100
C553        C  0.84582256  0.12342639  0.51164147     0.36500
C554        C  0.77364014  0.15859677  0.32522777     0.36500
N555        N  0.86441975  0.11436651  0.54556684    -0.38300
N556        N  0.76330325  0.16339398  0.28378402    -0.38300
N557        N  0.86258901  0.21968416  0.50259355    -0.37700
N558        N  0.73201685  0.07270434  0.35797404    -0.37700
C559        C  0.62599234  0.27336790  0.45976255    -0.04400
C560        C  0.64278554  0.24497878  0.43002850    -0.01500
C561        C  0.67504995  0.25239555  0.40106646     0.03500
C562        C  0.69208775  0.28792561  0.40366724    -0.04400
C563        C  0.67286045  0.31720908  0.42926783    -0.01500
C564        C  0.64014005  0.30984099  0.45766976     0.03500
C565        C  0.62785485  0.20747782  0.43121378     0.38100
C566        C  0.68546412  0.35522673  0.42401780     0.38100
C567        C  0.62096877  0.33969275  0.48485535     0.36500
C568        C  0.69016803  0.22294924  0.36893093     0.36500
N569        N  0.60552365  0.36344429  0.50650780    -0.38300
N570        N  0.70081715  0.19909185  0.34266312    -0.38300
N571        N  0.69488380  0.38572544  0.41905588    -0.37700
N572        N  0.61598765  0.17761899  0.43232985    -0.37700
C573        C  0.81604103  0.21968006  0.91001861    -0.04400
C574        C  0.84557000  0.19498372  0.89770899    -0.01500
C575        C  0.88074838  0.19908670  0.92172786     0.03500
C576        C  0.88646889  0.22812046  0.95772609    -0.04400
C577        C  0.85810900  0.25497811  0.96554246    -0.01500
C578        C  0.82275194  0.25013904  0.94330585     0.03500
C579        C  0.83925941  0.16461096  0.86189877     0.38100
C580        C  0.86526234  0.28739238  0.99761696     0.38100
C581        C  0.79282814  0.27534029  0.95803403     0.36500
C582        C  0.91059079  0.17289072  0.91065777     0.36500
N583        N  0.76975170  0.29572426  0.97179568    -0.38300
N584        N  0.93459349  0.15220299  0.90157810    -0.38300
N585        N  0.87141357  0.31306412  0.02322941    -0.37700
N586        N  0.83418212  0.14043423  0.83319076    -0.37700
C587        C  0.70237386  0.31955108  0.88934704    -0.04400
C588        C  0.67408650  0.33620425  0.91929174    -0.01500
C589        C  0.68112990  0.36978679  0.94557918     0.03500
C590        C  0.71670342  0.38620288  0.94243129    -0.04400
C591        C  0.74311339  0.37214039  0.90673729    -0.01500
C592        C  0.73557350  0.33905226  0.87946501     0.03500
C593        C  0.63836754  0.31794535  0.92443524     0.38100
C594        C  0.77940875  0.38940951  0.90181720     0.38100
C595        C  0.76351658  0.32308547  0.84530074     0.36500
C596        C  0.65249355  0.38662023  0.97768232     0.36500
N597        N  0.78583635  0.31038506  0.81810908    -0.38300
N598        N  0.62964527  0.40019125  0.00318626    -0.38300
N599        N  0.80839330  0.40310968  0.89797192    -0.37700
N600        N  0.60971095  0.30357034  0.92800334    -0.37700
C601        C  0.73723759  0.09133919  0.62029039    -0.04400
C602        C  0.72401282  0.12852710  0.62212360    -0.01500
C603        C  0.72312560  0.14816044  0.66885055     0.03500
C604        C  0.72941365  0.12929452  0.71524694    -0.04400
C605        C  0.73811157  0.09101944  0.71428530    -0.01500
C606        C  0.74399065  0.07249275  0.66692950     0.03500
C607        C  0.70988554  0.14636842  0.57618567     0.38100
C608        C  0.74074071  0.07076195  0.76203869     0.38100
C609        C  0.75746097  0.03441396  0.66673095     0.36500
C610        C  0.71511154  0.18778766  0.66864836     0.36500
N611        N  0.76809155  0.00396617  0.66700102    -0.38300
N612        N  0.70923856  0.21944382  0.66695341    -0.38300
N613        N  0.74235357  0.05458588  0.80015562    -0.37700
N614        N  0.69849579  0.16057518  0.53972631    -0.37700
C615        C  0.61433820  0.21517474  0.72677975    -0.04400
C616        C  0.59813590  0.25070398  0.72042484    -0.01500
C617        C  0.58145531  0.26022822  0.67317507     0.03500
C618        C  0.58286568  0.23499445  0.63144105    -0.04400
C619        C  0.59790271  0.19905622  0.63843901    -0.01500
C620        C  0.61230698  0.18875149  0.68645347     0.03500
C621        C  0.60006147  0.27785340  0.76174705     0.38100
C622        C  0.60089580  0.17346825  0.59518013     0.38100
C623        C  0.62607961  0.15113738  0.69351575     0.36500
C624        C  0.56386185  0.29626499  0.66684996     0.36500
N625        N  0.63636581  0.12078884  0.69817151    -0.38300
N626        N  0.54946906  0.32488086  0.66178168    -0.38300
N627        N  0.60382328  0.15328448  0.56055779    -0.37700
N628        N  0.60178315  0.29953390  0.79472310    -0.37700
C629        C  0.61499699  0.71465479  0.95259886    -0.04400
C630        C  0.62752266  0.73516161  0.91011755    -0.01500
C631        C  0.66123771  0.72541731  0.88488269     0.03500
C632        C  0.68474398  0.69665986  0.90452136    -0.04400
C633        C  0.67052999  0.67484104  0.94555957    -0.01500
C634        C  0.63502634  0.68253853  0.96683072     0.03500
C635        C  0.60724826  0.76815059  0.89434909     0.38100
C636        C  0.69297164  0.64651209  0.97021323     0.38100
C637        C  0.61925376  0.65753736  0.00444127     0.36500
C638        C  0.67261068  0.74778415  0.84153935     0.36500
N639        N  0.60675611  0.63697671  0.03362783    -0.38300
N640        N  0.68143701  0.76600989  0.80725749    -0.38300
N641        N  0.71038555  0.62457919  0.99201003    -0.37700
N642        N  0.59138880  0.79452396  0.88135038    -0.37700
C643        C  0.73829640  0.01571703  0.98997591    -0.04400
C644        C  0.70393747  0.01858070  0.96373562    -0.01500
C645        C  0.69146313  0.05322904  0.94527455     0.03500
C646        C  0.71293400  0.08563072  0.95312628    -0.04400
C647        C  0.74632475  0.08323353  0.98170703    -0.01500
C648        C  0.75912211  0.04834826  0.99960394     0.03500
C649        C  0.68091990  0.98588758  0.95634546     0.38100
C650        C  0.76828222  0.11630430  0.99145846     0.38100
C651        C  0.79446221  0.04586292  0.02629211     0.36500
C652        C  0.65585248  0.05569901  0.91912465     0.36500
N653        N  0.82269030  0.04391118  0.04751589    -0.38300
N654        N  0.62745671  0.05783133  0.89836193    -0.38300
N655        N  0.78607997  0.14239999  0.99991970    -0.37700
N656        N  0.66263252  0.95979309  0.95032928    -0.37700
C657        C  0.76509919  0.87990579  0.95494427    -0.04400
C658        C  0.74020891  0.85042017  0.96372029    -0.01500
C659        C  0.74740887  0.81490753  0.94268785     0.03500
C660        C  0.77720463  0.80925393  0.90722385    -0.04400
C661        C  0.79787670  0.84072057  0.89161330    -0.01500
C662        C  0.79309698  0.87543315  0.91720052     0.03500
C663        C  0.70737198  0.85651276  0.99564994     0.38100
C664        C  0.82453933  0.83766398  0.85013543     0.38100
C665        C  0.81815939  0.90590107  0.90646710     0.36500
C666        C  0.72454477  0.78433809  0.96014286     0.36500
N667        N  0.83822189  0.93021503  0.89806129    -0.38300
N668        N  0.70641601  0.76071828  0.97653977    -0.38300
N669        N  0.84517756  0.83613646  0.81605988    -0.37700
N670        N  0.68118368  0.86141672  0.02089277    -0.37700
C671        C  0.81464473  0.79275741  0.41396233    -0.04400
C672        C  0.83378150  0.82339234  0.43574421    -0.01500
C673        C  0.86831926  0.81798491  0.46088043     0.03500
C674        C  0.88524388  0.78242823  0.46141123    -0.04400
C675        C  0.86815085  0.75275834  0.43503359    -0.01500
C676        C  0.83275133  0.75762813  0.41260699     0.03500
C677        C  0.81880834  0.86068202  0.43047966     0.38100
C678        C  0.88608011  0.71640608  0.43350795     0.38100
C679        C  0.81438614  0.72534272  0.39151204     0.36500
C680        C  0.88622123  0.84881563  0.48703157     0.36500
N681        N  0.80109581  0.69847854  0.37557326    -0.38300
N682        N  0.90050763  0.87330631  0.50818054    -0.38300
N683        N  0.90046375  0.68751909  0.43199332    -0.37700
N684        N  0.80746727  0.89062269  0.42543002    -0.37700
C685        C  0.70086905  0.68447936  0.38166061    -0.04400
C686        C  0.67909177  0.66982936  0.42152164    -0.01500
C687        C  0.68921350  0.63588665  0.44453734     0.03500
C688        C  0.72166516  0.61654758  0.42795188    -0.04400
C689        C  0.73859184  0.62764050  0.38125958    -0.01500
C690        C  0.72677149  0.66076505  0.35691230     0.03500
C691        C  0.64482794  0.68847021  0.43611017     0.38100
C692        C  0.77000443  0.60721604  0.36009867     0.38100
C693        C  0.74221970  0.67115123  0.30765608     0.36500
C694        C  0.66704195  0.62164468  0.48656281     0.36500
N695        N  0.75434679  0.67933459  0.26818582    -0.38300
N696        N  0.64950400  0.61042907  0.52031891    -0.38300
N697        N  0.79512058  0.59137678  0.34233744    -0.37700
N698        N  0.61651658  0.70216176  0.44634037    -0.37700
C699        C  0.75554853  0.92484450  0.13447479    -0.04400
C700        C  0.72247422  0.93411644  0.16144451    -0.01500
C701        C  0.71469320  0.91755880  0.20915522     0.03500
C702        C  0.73694031  0.88755743  0.22722750    -0.04400
C703        C  0.77174953  0.88081793  0.20265031    -0.01500
C704        C  0.78155144  0.90065319  0.15796847     0.03500
C705        C  0.69467247  0.95836518  0.13873175     0.38100
C706        C  0.79723770  0.85265491  0.22147947     0.38100
C707        C  0.81818759  0.89537786  0.13516032     0.36500
C708        C  0.68375995  0.93201210  0.23945854     0.36500
N709        N  0.84741206  0.89129543  0.11699728    -0.38300
N710        N  0.65932286  0.94402846  0.26359883    -0.38300
N711        N  0.81764583  0.83008836  0.23609754    -0.37700
N712        N  0.67234630  0.97750233  0.12060495    -0.37700
C713        C  0.62027702  0.78460763  0.21731094    -0.04400
C714        C  0.61643693  0.74685840  0.20352518    -0.01500
C715        C  0.59714463  0.73689805  0.15843877     0.03500
C716        C  0.58298581  0.76471036  0.12556352    -0.04400
C717        C  0.58575035  0.80252058  0.14046988    -0.01500
C718        C  0.60388067  0.81235806  0.18656595     0.03500
C719        C  0.63278831  0.71823738  0.23545300     0.38100
C720        C  0.57199778  0.83153571  0.10699460     0.38100
C721        C  0.60745913  0.85127277  0.20077991     0.36500
C722        C  0.59181117  0.69790343  0.14612120     0.36500
N723        N  0.61005313  0.88239236  0.21180358    -0.38300
N724        N  0.58748044  0.66663485  0.13729190    -0.38300
N725        N  0.56105412  0.85469404  0.08031390    -0.37700
N726        N  0.64586781  0.69532368  0.26070721    -0.37700
C727        C  0.70190897  0.91939581  0.45338186    -0.04400
C728        C  0.73049924  0.92023198  0.49071478    -0.01500
C729        C  0.74491420  0.95465983  0.50787818     0.03500
C730        C  0.72997015  0.98832977  0.48926721    -0.04400
C731        C  0.69876509  0.98751529  0.45659382    -0.01500
C732        C  0.68491778  0.95326834  0.43840403     0.03500
C733        C  0.74576662  0.88590024  0.51084498     0.38100
C734        C  0.68028582  0.02203743  0.44287966     0.38100
C735        C  0.65226575  0.95297163  0.40564351     0.36500
C736        C  0.77559978  0.95542595  0.54397093     0.36500
N737        N  0.62608209  0.95283782  0.37980752    -0.38300
N738        N  0.80010395  0.95583722  0.57274326    -0.38300
N739        N  0.66542744  0.04962135  0.43257160    -0.37700
N740        N  0.75792699  0.85862583  0.52731501    -0.37700
C741        C  0.23336011  0.88239591  0.45391116    -0.04400
C742        C  0.20055382  0.86336304  0.46780658    -0.01500
C743        C  0.19144442  0.82887963  0.44465280     0.03500
C744        C  0.21368938  0.81377428  0.40416282    -0.04400
C745        C  0.24336573  0.83601149  0.38523610    -0.01500
C746        C  0.25379728  0.86932134  0.41089440     0.03500
C747        C  0.17556844  0.87962531  0.50582934     0.38100
C748        C  0.26396638  0.82499318  0.33966833     0.38100
C749        C  0.28647926  0.88925596  0.39358373     0.36500
C750        C  0.15925080  0.80916289  0.46405538     0.36500
N751        N  0.31244232  0.90489194  0.37884670    -0.38300
N752        N  0.13381101  0.79387039  0.48103068    -0.38300
N753        N  0.28029364  0.81716143  0.30278974    -0.37700
N754        N  0.15525765  0.89252481  0.53566512    -0.37700
C755        C  0.50775637  0.77768649  0.47830064    -0.04400
C756        C  0.51121135  0.80668665  0.44249376    -0.01500
C757        C  0.54678408  0.81766255  0.42473756     0.03500
C758        C  0.57967579  0.80195131  0.44614008    -0.04400
C759        C  0.57567800  0.77682830  0.48750341    -0.01500
C760        C  0.54022912  0.76297708  0.50092650     0.03500
C761        C  0.47819071  0.82660170  0.42582749     0.38100
C762        C  0.60764279  0.76642264  0.51833089     0.38100
C763        C  0.53740226  0.73256933  0.53685802     0.36500
C764        C  0.54890539  0.84503464  0.38429133     0.36500
N765        N  0.53547755  0.70787468  0.56486912    -0.38300
N766        N  0.55036408  0.86693921  0.35208605    -0.38300
N767        N  0.63300052  0.75817193  0.54320493    -0.37700
N768        N  0.45212443  0.84333615  0.41347309    -0.37700
C769        C  0.38562927  0.71500047  0.43248310    -0.04400
C770        C  0.36534997  0.68277281  0.44603960    -0.01500
C771        C  0.33210932  0.67385945  0.42002786     0.03500
C772        C  0.31874226  0.69716451  0.38108829    -0.04400
C773        C  0.34293911  0.72369383  0.36010618    -0.01500
C774        C  0.37603217  0.73330675  0.38628968     0.03500
C775        C  0.37795036  0.65945931  0.48774907     0.38100
C776        C  0.33378182  0.74093259  0.31170515     0.38100
C777        C  0.39857097  0.76320759  0.36652780     0.36500
C778        C  0.31269983  0.63959794  0.43079127     0.36500
N779        N  0.41619881  0.78680355  0.34908785    -0.38300
N780        N  0.29816616  0.61145220  0.43780385    -0.38300
N781        N  0.32712571  0.75373015  0.27219313    -0.37700
N782        N  0.38777922  0.64087536  0.52116722    -0.37700
C783        C  0.11261425  0.78999581  0.93587308    -0.04400
C784        C  0.12970439  0.82497348  0.94325347    -0.01500
C785        C  0.16416352  0.83253942  0.91950160     0.03500
C786        C  0.18069152  0.80575052  0.88683970    -0.04400
C787        C  0.16027119  0.77399655  0.87213398    -0.01500
C788        C  0.12674770  0.76548049  0.89773567     0.03500
C789        C  0.11218032  0.85269474  0.97621404     0.38100
C790        C  0.17556470  0.74836817  0.83415263     0.38100
C791        C  0.10902317  0.72994885  0.88819293     0.36500
C792        C  0.18285753  0.86755018  0.92899709     0.36500
N793        N  0.09516586  0.70147044  0.88039100    -0.38300
N794        N  0.19739657  0.89578205  0.93604569    -0.38300
N795        N  0.18773825  0.72802329  0.80372815    -0.37700
N796        N  0.09794975  0.87500196  0.00198041    -0.37700
C797        C  0.27785240  0.69153327  0.89866816    -0.04400
C798        C  0.30305490  0.66169927  0.89063004    -0.01500
C799        C  0.29690053  0.62707408  0.91474140     0.03500
C800        C  0.26447669  0.62172024  0.94461521    -0.04400
C801        C  0.23756906  0.65035244  0.94799214    -0.01500
C802        C  0.24527642  0.68567546  0.92812968     0.03500
C803        C  0.33594962  0.66720918  0.85926729     0.38100
C804        C  0.20234711  0.64383087  0.97412696     0.38100
C805        C  0.22167001  0.71640913  0.94430141     0.36500
C806        C  0.32464231  0.59774240  0.91091547     0.36500
N807        N  0.20241439  0.73948683  0.96085053    -0.38300
N808        N  0.34686931  0.57436119  0.90798989    -0.38300
N809        N  0.17434714  0.63847627  0.99486953    -0.37700
N810        N  0.36205316  0.67173410  0.83395220    -0.37700
C811        C  0.27104144  0.92735057  0.62830745    -0.04400
C812        C  0.24077273  0.91965262  0.66120815    -0.01500
C813        C  0.24727705  0.90395272  0.70976694     0.03500
C814        C  0.28404972  0.89657101  0.72579115    -0.04400
C815        C  0.31436848  0.90806306  0.69519370    -0.01500
C816        C  0.30784762  0.92367923  0.64665940     0.03500
C817        C  0.20303333  0.92805862  0.64518428     0.38100
C818        C  0.35234856  0.90076534  0.71144906     0.38100
C819        C  0.33909349  0.93422536  0.61455260     0.36500
C820        C  0.21622944  0.89435313  0.74276349     0.36500
N821        N  0.36391547  0.94299490  0.58901619    -0.38300
N822        N  0.19153583  0.88676566  0.76926906    -0.38300
N823        N  0.38271312  0.89483650  0.72398007    -0.37700
N824        N  0.17286034  0.93526246  0.63306805    -0.37700
C825        C  0.36693618  0.78029480  0.70333002    -0.04400
C826        C  0.40216884  0.76275852  0.70188273    -0.01500
C827        C  0.41999819  0.75550423  0.65427581     0.03500
C828        C  0.40362601  0.76772343  0.60794036    -0.04400
C829        C  0.36933711  0.78728365  0.61003301    -0.01500
C830        C  0.35035423  0.79199849  0.65701051     0.03500
C831        C  0.41999337  0.75222426  0.74949819     0.38100
C832        C  0.35396418  0.80373860  0.56388756     0.38100
C833        C  0.31330793  0.80834278  0.65671990     0.36500
C834        C  0.45470349  0.73476594  0.65325856     0.36500
N835        N  0.28357404  0.82081033  0.65405367    -0.38300
N836        N  0.48236053  0.71807477  0.65323935    -0.38300
N837        N  0.34181398  0.81704001  0.52723860    -0.37700
N838        N  0.43418835  0.74407637  0.78762122    -0.37700
C839        C  0.48702199  0.77017846  0.98504977    -0.04400
C840        C  0.45449252  0.74935211  0.99421519    -0.01500
C841        C  0.41985296  0.76088689  0.97367548     0.03500
C842        C  0.41749665  0.79342732  0.94355664    -0.04400
C843        C  0.44998423  0.81499604  0.93618124    -0.01500
C844        C  0.48441061  0.80361554  0.95728959     0.03500
C845        C  0.45683517  0.71583193  0.02461282     0.38100
C846        C  0.44788754  0.84957462  0.90798430     0.38100
C847        C  0.51698695  0.82701461  0.95190710     0.36500
C848        C  0.38705937  0.73833422  0.98215022     0.36500
N849        N  0.54276478  0.84602188  0.94812564    -0.38300
N850        N  0.36115898  0.72002527  0.98932708    -0.38300
N851        N  0.44619335  0.87714412  0.88549692    -0.37700
N852        N  0.45885348  0.68919608  0.04907282    -0.37700
C853        C  0.51187562  0.22288457  0.98475212    -0.04400
C854        C  0.51740281  0.19213951  0.95165771    -0.01500
C855        C  0.55362727  0.18170787  0.93579476     0.03500
C856        C  0.58530229  0.20084233  0.95514239    -0.04400
C857        C  0.57960288  0.22886015  0.99328830    -0.01500
C858        C  0.54314464  0.24043424  0.00683835     0.03500
C859        C  0.48597274  0.16957402  0.93609552     0.38100
C860        C  0.61094921  0.24524951  0.02020319     0.38100
C861        C  0.53782059  0.27054972  0.04366497     0.36500
C862        C  0.55752972  0.15123459  0.89918601     0.36500
N863        N  0.53349072  0.29437355  0.07327307    -0.38300
N864        N  0.56034488  0.12683007  0.87014229    -0.38300
N865        N  0.63579079  0.25834891  0.04195789    -0.37700
N866        N  0.46174651  0.15032486  0.92406259    -0.37700
C867        C  0.38577960  0.27385507  0.93403566    -0.04400
C868        C  0.37225087  0.31082263  0.93556779    -0.01500
C869        C  0.33939957  0.32044826  0.90883448     0.03500
C870        C  0.31961468  0.29296872  0.88121111    -0.04400
C871        C  0.33741923  0.25808426  0.87178480    -0.01500
C872        C  0.36945456  0.24812939  0.89985724     0.03500
C873        C  0.39135921  0.33851624  0.96633324     0.38100
C874        C  0.32124903  0.23054972  0.83739401     0.38100
C875        C  0.38219007  0.20980046  0.89838702     0.36500
C876        C  0.32650110  0.35871002  0.90858248     0.36500
N877        N  0.39072303  0.17875210  0.89684423    -0.38300
N878        N  0.31665326  0.38940231  0.90749790    -0.38300
N879        N  0.30853599  0.20838463  0.81022234    -0.37700
N880        N  0.40669737  0.36063551  0.99078841    -0.37700
C881        C  0.29915082  0.91685689  0.95923989    -0.04400
C882        C  0.31352382  0.95120028  0.94182019    -0.01500
C883        C  0.29984778  0.98517649  0.96238828     0.03500
C884        C  0.26975640  0.98552173  0.99777007    -0.04400
C885        C  0.25648657  0.95140115  0.01666724    -0.01500
C886        C  0.27244967  0.91750974  0.99972965     0.03500
C887        C  0.34150833  0.95217255  0.90155811     0.38100
C888        C  0.22501187  0.95082955  0.05177839     0.38100
C889        C  0.26114300  0.88339676  0.02472990     0.36500
C890        C  0.31717086  0.01983854  0.94727754     0.36500
N891        N  0.25205462  0.85630994  0.04479708    -0.38300
N892        N  0.33105776  0.04740913  0.93520048    -0.46300
N893        N  0.19982148  0.95031334  0.07957760    -0.37700
N894        N  0.36374228  0.95313690  0.86934907    -0.37700
C895        C  0.22063045  0.18328548  0.90638565    -0.04400
C896        C  0.19310441  0.15537571  0.90112932    -0.01500
C897        C  0.19707407  0.12124278  0.92734598     0.03500
C898        C  0.22887162  0.11460448  0.95762752    -0.04400
C899        C  0.25767837  0.14095875  0.95933831    -0.01500
C900        C  0.25277847  0.17577553  0.93652714     0.03500
C901        C  0.15861799  0.16332805  0.87445215     0.38100
C902        C  0.29165211  0.13305346  0.98781118     0.38100
C903        C  0.27904460  0.20475072  0.95017614     0.36500
C904        C  0.16759983  0.09383727  0.92569445     0.36500
N905        N  0.29929261  0.22749583  0.96448086    -0.38300
N906        N  0.14410936  0.07190937  0.92449300    -0.38300
N907        N  0.31855128  0.12678972  0.01065683    -0.37700
N908        N  0.13070500  0.16962997  0.85406231    -0.37700
C909        C  0.12491927  0.23118208  0.47305148    -0.04400
C910        C  0.15296939  0.25839082  0.47545445    -0.01500
C911        C  0.18814630  0.25133571  0.45345477     0.03500
C912        C  0.19491170  0.21776335  0.42625138    -0.04400
C913        C  0.16626903  0.19121563  0.42165056    -0.01500
C914        C  0.13144996  0.19767065  0.44571682     0.03500
C915        C  0.14566431  0.29358317  0.50143572     0.38100
C916        C  0.17288321  0.15713652  0.39280803     0.38100
C917        C  0.10286036  0.16935450  0.44410004     0.36500
C918        C  0.21773267  0.27792478  0.46213187     0.36500
N919        N  0.08000792  0.14676452  0.44309816    -0.38300
N920        N  0.24037239  0.29973040  0.47143654    -0.38300
N921        N  0.17823513  0.13001544  0.36963031    -0.37700
N922        N  0.13959851  0.32158925  0.52207139    -0.37700
C923        C  0.30212711  0.31995270  0.39282031    -0.04400
C924        C  0.27350261  0.34192858  0.37114043    -0.01500
C925        C  0.26305631  0.37604135  0.39464719     0.03500
C926        C  0.28200974  0.38878574  0.43889806    -0.04400
C927        C  0.31480399  0.37010638  0.45423328    -0.01500
C928        C  0.32374165  0.33495293  0.43321506     0.03500
C929        C  0.25151369  0.32729203  0.32896826     0.38100
C930        C  0.33804837  0.38611991  0.49413960     0.38100
C931        C  0.35284331  0.31298567  0.45700737     0.36500
C932        C  0.23101452  0.39617732  0.37542627     0.36500
N933        N  0.37559828  0.29594915  0.47780942    -0.38300
N934        N  0.20557205  0.41194972  0.35904216    -0.38300
N935        N  0.35673636  0.39892942  0.52572487    -0.37700
N936        N  0.23381870  0.31552569  0.29556874    -0.37700
C937        C  0.26526851  0.11900274  0.23053311    -0.04400
C938        C  0.28859411  0.09019480  0.21077097    -0.01500
C939        C  0.28135168  0.07418539  0.16247536     0.03500
C940        C  0.24673718  0.08050037  0.13807771    -0.04400
C941        C  0.21985578  0.10324701  0.16353794    -0.01500
C942        C  0.22960654  0.12375639  0.20818521     0.03500
C943        C  0.31991602  0.07614224  0.24017721     0.38100
C944        C  0.18241523  0.10646468  0.14303782     0.38100
C945        C  0.20295093  0.14990294  0.23011751     0.36500
C946        C  0.31146807  0.05460591  0.13624595     0.36500
N947        N  0.18157697  0.17074345  0.24747831    -0.38300
N948        N  0.33571931  0.03949786  0.11520295    -0.38300
N949        N  0.15255670  0.10912859  0.12671794    -0.37700
N950        N  0.34452184  0.06441480  0.26380086    -0.37700
C951        C  0.40937661  0.23534047  0.11418124    -0.04400
C952        C  0.40847794  0.19870034  0.13336509    -0.01500
C953        C  0.39436123  0.19198327  0.18282384     0.03500
C954        C  0.37876273  0.22141387  0.21213358    -0.04400
C955        C  0.37944723  0.25798343  0.19306057    -0.01500
C956        C  0.39556272  0.26508615  0.14473932     0.03500
C957        C  0.41992431  0.16752775  0.10106265     0.38100
C958        C  0.36355139  0.28826031  0.22326118     0.38100
C959        C  0.39809127  0.30301591  0.12662156     0.36500
C960        C  0.39464312  0.15440037  0.20261820     0.36500
N961        N  0.40019908  0.33329949  0.11225999    -0.38300
N962        N  0.39544501  0.12440019  0.21826674    -0.38300
N963        N  0.35077563  0.31235983  0.24735200    -0.37700
N964        N  0.42876737  0.14268510  0.07514785    -0.37700
C965        C  0.42652366  0.20607633  0.43804653    -0.04400
C966        C  0.44150168  0.24121503  0.42635524    -0.01500
C967        C  0.47495540  0.25302189  0.44937557     0.03500
C968        C  0.49501025  0.22882222  0.48203836    -0.04400
C969        C  0.48112237  0.19250529  0.49064567    -0.01500
C970        C  0.44678868  0.18141002  0.46921389     0.03500
C971        C  0.42305272  0.26474903  0.38905836     0.38100
C972        C  0.50223629  0.16604661  0.52073604     0.38100
C973        C  0.43197993  0.14478444  0.47993451     0.36500
C974        C  0.48806565  0.29052521  0.44022715     0.36500
N975        N  0.42014590  0.11557213  0.48834817    -0.38300
N976        N  0.49855270  0.32038309  0.43271069    -0.38300
N977        N  0.51862499  0.14464086  0.54484467    -0.37700
N978        N  0.40838113  0.28335424  0.35915577    -0.37700
C979        C  0.28197071  0.01375761  0.48080024    -0.04400
C980        C  0.31600516  0.01717805  0.45402949    -0.01500
C981        C  0.32750711  0.05221640  0.43601244     0.03500
C982        C  0.30575493  0.08439220  0.44638009    -0.04400
C983        C  0.27302274  0.08122343  0.47637749    -0.01500
C984        C  0.26078100  0.04593569  0.49244886     0.03500
C985        C  0.33998095  0.98490888  0.44694531     0.38100
C986        C  0.25138319  0.11393046  0.49049496     0.38100
C987        C  0.22594826  0.04260056  0.52044039     0.36500
C988        C  0.36244456  0.05532526  0.40820566     0.36500
N989        N  0.19813167  0.03988505  0.54263314    -0.38300
N990        N  0.39033630  0.05782470  0.38612542    -0.38300
N991        N  0.23370366  0.13942049  0.50321206    -0.37700
N992        N  0.35945768  0.95936597  0.44188249    -0.37700
loop_ 
_geom_bond_atom_site_label_1 
_geom_bond_atom_site_label_2 
_geom_bond_distance 
_geom_bond_site_symmetry_2 
_ccdc_geom_bond_type 
O1          Cr19   1.968       .  S
O1            C9   1.254       .  A
O2          Cr19   1.995       .  S
O2            C3   1.266       .  A
C3            O4   1.264       .  A
C3          C923   1.485       .  S
O4          Cr20   1.987       .  S
O5          Cr20   2.006       .  S
O5            C6   1.266       .  A
C6            O7   1.261       .  A
C6          C954   1.477       .  S
O7          Cr21   1.975       .  S
O8          Cr21   2.006       .  S
O8            C9   1.261       .  A
C9          C965   1.480       .  S
O10         Cr19   2.020       .  S
O10          C18   1.269       .  A
O11         Cr19   1.975       .  S
O11          C12   1.257       .  A
C12          O13   1.262       .  A
C12         C912   1.478       .  S
O13         Cr20   2.007       .  S
O14         Cr20   2.004       .  S
O14          C15   1.266       .  A
C15          O16   1.263       .  A
C15         C937   1.506       .  S
O16         Cr21   1.989       .  S
O17         Cr21   1.965       .  S
O17          C18   1.258       .  A
C18         C982   1.487       .  S
Cr19         O22   1.768       .  S
Cr20         O22   1.775       .  S
Cr21         O22   1.773       .  S
C23         C884   1.498   1_544  S
C23          C24   1.410       .  A
C23          C28   1.406   1_554  A
C24          C25   1.410       .  A
C24          H29   1.082       .  S
C25         C940   1.503       .  S
C25          C26   1.400       .  A
C26          C27   1.400   1_554  A
C26          H30   1.084       .  S
C27         C898   1.481       .  S
C27          C28   1.397       .  A
C28          H31   1.084       .  S
C32         C853   1.491       .  S
C32          C33   1.402   1_556  A
C32          C37   1.410       .  A
C33          C34   1.401       .  A
C33          H38   1.084       .  S
C34         C951   1.487       .  S
C34          C35   1.401       .  A
C35          C36   1.402   1_554  A
C35          H39   1.085       .  S
C36         C867   1.489       .  S
C36          C37   1.407       .  A
C37          H40   1.082       .  S
O41         Cr59   1.955       .  S
O41          C49   1.253       .  A
O42         Cr59   2.004       .  S
O42          C43   1.265       .  A
C43          O44   1.254       .  A
C43         C786   1.477       .  S
O44         Cr60   1.975       .  S
O45         Cr60   1.996       .  S
O45          C46   1.264       .  A
C46          O47   1.260       .  A
C46         C814   1.476       .  S
O47         Cr61   1.978       .  S
O48         Cr61   2.027       .  S
O48          C49   1.268       .  A
C49         C881   1.504       .  S
O50         Cr59   2.024       .  S
O50          C58   1.269       .  A
O51         Cr59   1.969       .  S
O51          C52   1.257       .  A
C52          O53   1.269       .  A
C52         C797   1.484       .  S
O53         Cr60   2.030       .  S
O54         Cr60   1.986       .  S
O54          C55   1.264       .  A
C55          O56   1.266       .  A
C55         C825   1.484       .  S
O56         Cr61   2.010       .  S
O57         Cr61   1.976       .  S
O57          C58   1.260       .  A
C58         C842   1.496       .  S
Cr59         O62   1.768       .  S
Cr60         O62   1.777       .  S
Cr61         O62   1.777       .  S
C63         C755   1.495       .  S
C63          C64   1.411       .  A
C63          C68   1.408       .  A
C64          C65   1.409       .  A
C64          H69   1.083       .  S
C65         C769   1.503       .  S
C65          C66   1.405       .  A
C66          C67   1.403       .  A
C66          H70   1.084       .  S
C67         C828   1.497       .  S
C67          C68   1.404       .  A
C68          H71   1.083       .  S
C72         C979   1.487   1_565  S
C72          C73   1.409       .  A
C72          C77   1.401       .  A
C73          C74   1.410       .  A
C73          H78   1.093       .  S
C74         C741   1.506       .  S
C74          C75   1.409       .  A
C75          C76   1.402       .  A
C75          H79   1.085       .  S
C76         C811   1.485       .  S
C76          C77   1.397       .  A
C77          H80   1.078       .  S
O81         Cr99   1.982       .  S
O81          C89   1.259       .  A
O82         Cr99   2.011       .  S
O82          C83   1.269       .  A
C83          O84   1.262       .  A
C83         C685   1.494       .  S
O84        Cr100   1.990       .  S
O85        Cr100   2.013       .  S
O85          C86   1.269       .  A
C86          O87   1.261       .  A
C86         C713   1.478       .  S
O87        Cr101   1.972       .  S
O88        Cr101   2.016       .  S
O88          C89   1.264       .  A
C89         C758   1.509       .  S
O90         Cr99   2.024       .  S
O90          C98   1.270       .  A
O91         Cr99   1.989       .  S
O91          C92   1.262       .  A
C92          O93   1.267       .  A
C92         C671   1.499       .  S
O93        Cr100   2.016       .  S
O94        Cr100   1.998       .  S
O94          C95   1.263       .  A
C95          O96   1.264       .  A
C95         C702   1.511       .  S
O96        Cr101   2.003       .  S
O97        Cr101   1.962       .  S
O97          C98   1.259       .  A
C98         C727   1.491       .  S
Cr99        O102   1.770       .  S
Cr100       O102   1.774       .  S
Cr101       O102   1.774       .  S
C103        C643   1.497   1_564  S
C103        C104   1.411   1_554  A
C103        C108   1.410       .  A
C104        C105   1.403       .  A
C104        H109   1.084       .  S
C105        C657   1.496       .  S
C105        C106   1.402   1_556  A
C106        C107   1.401       .  A
C106        H110   1.084       .  S
C107        C699   1.503       .  S
C107        C108   1.409       .  A
C108        H111   1.083       .  S
C112        C839   1.492   1_554  S
C112        C113   1.406       .  A
C112        C117   1.409   1_554  A
C113        C114   1.405       .  A
C113        H118   1.084       .  S
C114        C716   1.492       .  S
C114        C115   1.401       .  A
C115        C116   1.403   1_554  A
C115        H119   1.085       .  S
C116        C629   1.499       .  S
C116        C117   1.408       .  A
C117        H120   1.082       .  S
O121       Cr139   2.024       .  S
O121        C129   1.269       .  A
O122       Cr139   1.972       .  S
O122        C123   1.259       .  A
C123        O124   1.268       .  A
C123        C573   1.485       .  S
O124       Cr140   2.025       .  S
O125       Cr140   1.981       .  S
O125        C126   1.260       .  A
C126        O127   1.259       .  A
C126        C604   1.471       .  S
O127       Cr141   1.987       .  S
O128       Cr141   1.968       .  S
O128        C129   1.259       .  A
C129        C646   1.490       .  S
O130       Cr139   1.978       .  S
O130        C138   1.257       .  A
O131       Cr139   1.993       .  S
O131        C132   1.263       .  A
C132        O133   1.255       .  A
C132        C587   1.470       .  S
O133       Cr140   1.972       .  S
O134       Cr140   2.005       .  S
O134        C135   1.266       .  A
C135        O136   1.264       .  A
C135        C615   1.481       .  S
O136       Cr141   1.988       .  S
O137       Cr141   2.007       .  S
O137        C138   1.262       .  A
C138        C856   1.505       .  S
Cr139       O142   1.771       .  S
Cr140       O142   1.777       .  S
Cr141       O142   1.774       .  S
C143        C968   1.496       .  S
C143        C144   1.409       .  A
C143        C148   1.406       .  A
C144        C145   1.404       .  A
C144        H149   1.083       .  S
C145        C618   1.485       .  S
C145        C146   1.401       .  A
C146        C147   1.399       .  A
C146        H150   1.084       .  S
C147        C559   1.484       .  S
C147        C148   1.400       .  A
C148        H151   1.084       .  S
C152        C730   1.484   1_545  S
C152        C153   1.402       .  A
C152        C157   1.412       .  A
C153        C154   1.400       .  A
C153        H158   1.083       .  S
C154        C601   1.494       .  S
C154        C155   1.399       .  A
C155        C156   1.403       .  A
C155        H159   1.082       .  S
C156        C545   1.508       .  S
C156        C157   1.409       .  A
C157        H160   1.082       .  S
O161       Cr179   2.026       .  S
O161        C169   1.270       .  A
O162       Cr179   1.980       .  S
O162        C163   1.263       .  A
C163        O164   1.268       .  A
C163        C562   1.499       .  S
O164       Cr180   2.012       .  S
O165       Cr180   2.001       .  S
O165        C166   1.266       .  A
C166        O167   1.266       .  A
C166        C503   1.501       .  S
O167       Cr181   2.011       .  S
O168       Cr181   1.980       .  S
O168        C169   1.262       .  A
C169        C517   1.505       .  S
O170       Cr179   1.969       .  S
O170        C178   1.255       .  A
O171       Cr179   2.010       .  S
O171        C172   1.266       .  A
C172        O173   1.262       .  A
C172        C548   1.497       .  S
O173       Cr180   1.994       .  S
O174       Cr180   2.010       .  S
O174        C175   1.268       .  A
C175        O176   1.259       .  A
C175        C489   1.487       .  S
O176       Cr181   1.976       .  S
O177       Cr181   2.010       .  S
O177        C178   1.263       .  A
C178        C534   1.485       .  S
Cr179       O182   1.772       .  S
Cr180       O182   1.773       .  S
Cr181       O182   1.774       .  S
C183        C475   1.493   1_654  S
C183        C184   1.405       .  A
C183        C188   1.410   1_554  A
C184        C185   1.403       .  A
C184        H189   1.084   1_655  S
C185        C492   1.497       .  S
C185        C186   1.402       .  A
C186        C187   1.404   1_554  A
C186        H190   1.084       .  S
C187        C576   1.494       .  S
C187        C188   1.404       .  A
C188        H191   1.083       .  S
C192        C461   1.503   1_554  S
C192        C193   1.405   1_554  A
C192        C197   1.417       .  A
C193        C194   1.395       .  A
C193        H198   1.084       .  S
C194        C590   1.483       .  S
C194        C195   1.399   1_556  A
C195        C196   1.399       .  A
C195        H199   1.085       .  S
C196        C506   1.494       .  S
C196        C197   1.413       .  A
C197        H200   1.083       .  S
O201       Cr219   1.983       .  S
O201        C209   1.260       .  A
O202       Cr219   1.969       .  S
O202        C203   1.256       .  A
C203        O204   1.265       .  A
C203        C895   1.492       .  S
O204       Cr220   2.007       .  S
O205       Cr220   1.998       .  S
O205        C206   1.265       .  A
C206        O207   1.261       .  A
C206        C419   1.491       .  S
O207       Cr221   1.983       .  S
O208       Cr221   2.003       .  S
O208        C209   1.265       .  A
C209        C478   1.514       .  S
O210       Cr219   1.997       .  S
O210        C218   1.261       .  A
O211       Cr219   1.995       .  S
O211        C212   1.269       .  A
C212        O213   1.265       .  A
C212        C870   1.501       .  S
O213       Cr220   1.993       .  S
O214       Cr220   1.991       .  S
O214        C215   1.263       .  A
C215        O216   1.264       .  A
C215        C433   1.496       .  S
O216       Cr221   2.001       .  S
O217       Cr221   1.990       .  S
O217        C218   1.262       .  A
C218        C447   1.496       .  S
Cr219       O222   1.770       .  S
Cr220       O222   1.770       .  S
Cr221       O222   1.770       .  S
C223        C405   1.492       .  S
C223        C224   1.410       .  A
C223        C228   1.408       .  A
C224        C225   1.406       .  A
C224        H229   1.083       .  S
C225        C926   1.495       .  S
C225        C226   1.404       .  A
C226        C227   1.396       .  A
C226        H230   1.084       .  S
C227        C436   1.488       .  S
C227        C228   1.404       .  A
C228        H231   1.084       .  S
C232        C531   1.483   1_455  S
C232        C233   1.403       .  A
C232        C237   1.407       .  A
C233        C234   1.397       .  A
C233        H238   1.085       .  S
C234        C909   1.483       .  S
C234        C235   1.398       .  A
C235        C236   1.406       .  A
C235        H239   1.084       .  S
C236        C422   1.502       .  S
C236        C237   1.408       .  A
C237        H240   1.082       .  S
O241       Cr259   1.977       .  S
O241        C249   1.256       .  A
O242       Cr259   2.000       .  S
O242        C243   1.266       .  A
C243        O244   1.260       .  A
C243        C772   1.486       .  S
O244       Cr260   1.986       .  S
O245       Cr260   2.015       .  S
O245        C246   1.271       .  A
C246        O247   1.265       .  A
C246        C377   1.487       .  S
O247       Cr261   1.981       .  S
O248       Cr261   2.017       .  S
O248        C249   1.263       .  A
C249        C408   1.507       .  S
O250       Cr259   2.024       .  S
O250        C258   1.271       .  A
O251       Cr259   1.977       .  S
O251        C252   1.261       .  A
C252        O253   1.269       .  A
C252        C744   1.517       .  S
O253       Cr260   2.022       .  S
O254       Cr260   2.003       .  S
O254        C255   1.264       .  A
C255        O256   1.261       .  A
C255        C363   1.517       .  S
O256       Cr261   1.996       .  S
O257       Cr261   1.978       .  S
O257        C258   1.261       .  A
C258        C394   1.487       .  S
Cr259       O262   1.769       .  S
Cr260       O262   1.775       .  S
Cr261       O262   1.773       .  S
C263        C349   1.489   1_455  S
C263        C264   1.405   1_556  A
C263        C268   1.404       .  A
C264        C265   1.409       .  A
C264        H269   1.084       .  S
C265        C366   1.503       .  S
C265        C266   1.403       .  A
C266        C267   1.404   1_554  A
C266        H270   1.084       .  S
C267        C783   1.489       .  S
C267        C268   1.403       .  A
C268        H271   1.083       .  S
C272        C450   1.493       .  S
C272        C273   1.409       .  A
C272        C277   1.409   1_556  A
C273        C274   1.401       .  A
C273        H278   1.084       .  S
C274        C800   1.489       .  S
C274        C275   1.402   1_556  A
C275        C276   1.401       .  A
C275        H279   1.085       .  S
C276        C380   1.497       .  S
C276        C277   1.404       .  A
C277        H280   1.083       .  S
O281       Cr299   1.971       .  S
O281        C289   1.259       .  A
O282       Cr299   1.989       .  S
O282        C283   1.259       .  A
C283        O284   1.264       .  A
C283        C660   1.505       .  S
O284       Cr300   2.005       .  S
O285       Cr300   2.022       .  S
O285        C286   1.271       .  A
C286        O287   1.259       .  A
C286        C324   1.487       .  S
O287       Cr301   1.977       .  S
O288       Cr301   2.018       .  S
O288        C289   1.270       .  A
C289        C352   1.514       .  S
O290       Cr299   2.011       .  S
O290        C298   1.262       .  A
O291       Cr299   1.978       .  S
O291        C292   1.265       .  A
C292        O293   1.273       .  A
C292        C632   1.518       .  S
O293       Cr300   2.023       .  S
O294       Cr300   1.992       .  S
O294        C295   1.262       .  A
C295        O296   1.261       .  A
C295        C335   1.488       .  S
O296       Cr301   1.994       .  S
O297       Cr301   1.986       .  S
O297        C298   1.256       .  A
C298        C464   1.486       .  S
Cr299       O302   1.778       .  S
Cr300       O302   1.776       .  S
Cr301       O302   1.780       .  S
C303        C520   1.498       .  S
C303        C304   1.411       .  A
C303        C308   1.411       .  A
C304        C305   1.408       .  A
C304        H309   1.083       .  S
C305        C688   1.506       .  S
C305        C306   1.404       .  A
C306        C307   1.405       .  A
C306        H310   1.084       .  S
C307        C338   1.512       .  S
C307        C308   1.411       .  A
C308        H311   1.082       .  S
C312        C391   1.510   1_655  S
C312        C313   1.413       .  A
C312        C317   1.413       .  A
C313        C314   1.407       .  A
C313        H318   1.083       .  S
C314        C321   1.487       .  S
C314        C315   1.397       .  A
C315        C316   1.398       .  A
C315        H319   1.085       .  S
C316        C674   1.490       .  S
C316        C317   1.406       .  A
C317        H320   1.084       .  S
C321        C322   1.412       .  A
C321        C326   1.411       .  A
C322        C323   1.416       .  A
C322        C327   1.448       .  S
C323        C324   1.410       .  A
C323        C330   1.446       .  S
C324        C325   1.414       .  A
C325        C326   1.408       .  A
C325        C328   1.450       .  S
C326        C329   1.453       .  S
C327        N334   1.157       .  T
C328        N333   1.157       .  T
C329        N331   1.157       .  T
C330        N332   1.157       .  T
C335        C336   1.411       .  A
C335        C340   1.411       .  A
C336        C337   1.419       .  A
C336        C341   1.451       .  S
C337        C338   1.422       .  A
C337        C344   1.449       .  S
C338        C339   1.421       .  A
C339        C340   1.410       .  A
C339        C342   1.454       .  S
C340        C343   1.452       .  S
C341        N348   1.157       .  T
C342        N347   1.158       .  T
C343        N345   1.157       .  T
C344        N346   1.157       .  T
C349        C350   1.410       .  A
C349        C354   1.405       .  A
C350        C351   1.415       .  A
C350        C355   1.452   1_655  S
C351        C352   1.425       .  A
C351        C358   1.451       .  S
C352        C353   1.430       .  A
C353        C354   1.413       .  A
C353        C356   1.452       .  S
C354        C357   1.452       .  S
C355        N362   1.157       .  T
C356        N361   1.157       .  T
C357        N359   1.157   1_556  T
C358        N360   1.158       .  T
C363        C364   1.422       .  A
C363        C368   1.427       .  A
C364        C365   1.419       .  A
C364        C369   1.451       .  S
C365        C366   1.416       .  A
C365        C372   1.451       .  S
C366        C367   1.412       .  A
C367        C368   1.411       .  A
C367        C370   1.454       .  S
C368        C371   1.451       .  S
C369        N376   1.158       .  T
C370        N375   1.157       .  T
C371        N373   1.157       .  T
C372        N374   1.157       .  T
C377        C378   1.412       .  A
C377        C382   1.413       .  A
C378        C379   1.412       .  A
C378        C383   1.451       .  S
C379        C380   1.416       .  A
C379        C386   1.451       .  S
C380        C381   1.417       .  A
C381        C382   1.412       .  A
C381        C384   1.451       .  S
C382        C385   1.450       .  S
C383        N390   1.157       .  T
C384        N389   1.157       .  T
C385        N387   1.157       .  T
C386        N388   1.157       .  T
C391        C392   1.423       .  A
C391        C396   1.420       .  A
C392        C393   1.416       .  A
C392        C397   1.449       .  S
C393        C394   1.409       .  A
C393        C400   1.452       .  S
C394        C395   1.411       .  A
C395        C396   1.414       .  A
C395        C398   1.452       .  S
C396        C399   1.451       .  S
C397        N404   1.157   1_455  T
C398        N403   1.158       .  T
C399        N401   1.157       .  T
C400        N402   1.157       .  T
C405        C406   1.410       .  A
C405        C410   1.409       .  A
C406        C407   1.414       .  A
C406        C411   1.451       .  S
C407        C408   1.422       .  A
C407        C414   1.450       .  S
C408        C409   1.423       .  A
C409        C410   1.413       .  A
C409        C412   1.452       .  S
C410        C413   1.451       .  S
C411        N418   1.157       .  T
C412        N417   1.158       .  T
C413        N415   1.157       .  T
C414        N416   1.157       .  T
C419        C420   1.415       .  A
C419        C424   1.414       .  A
C420        C421   1.414       .  A
C420        C425   1.452       .  S
C421        C422   1.419       .  A
C421        C428   1.449       .  S
C422        C423   1.416       .  A
C423        C424   1.409       .  A
C423        C426   1.453       .  S
C424        C427   1.451       .  S
C425        N432   1.157       .  T
C426        N431   1.157       .  T
C427        N429   1.157       .  T
C428        N430   1.157       .  T
C433        C434   1.419       .  A
C433        C438   1.416       .  A
C434        C435   1.410       .  A
C434        C439   1.448       .  S
C435        C436   1.407       .  A
C435        C442   1.452       .  S
C436        C437   1.412       .  A
C437        C438   1.415       .  A
C437        C440   1.450       .  S
C438        C441   1.451       .  S
C439        N446   1.156       .  T
C440        N445   1.157       .  T
C441        N443   1.158       .  T
C442        N444   1.157       .  T
C447        C448   1.416       .  A
C447        C452   1.421       .  A
C448        C449   1.413       .  A
C448        C453   1.452       .  S
C449        C450   1.415       .  A
C449        C456   1.452       .  S
C450        C451   1.412       .  A
C451        C452   1.410       .  A
C451        C454   1.453   1_556  S
C452        C455   1.453       .  S
C453        N460   1.157       .  T
C454        N459   1.157       .  T
C455        N457   1.158   1_556  T
C456        N458   1.157       .  T
C461        C462   1.419       .  A
C461        C466   1.419       .  A
C462        C463   1.416       .  A
C462        C467   1.450   1_556  S
C463        C464   1.410       .  A
C463        C470   1.450       .  S
C464        C465   1.410       .  A
C465        C466   1.411       .  A
C465        C468   1.452       .  S
C466        C469   1.452       .  S
C467        N474   1.157       .  T
C468        N473   1.157       .  T
C469        N471   1.157       .  T
C470        N472   1.157       .  T
C475        C476   1.410       .  A
C475        C480   1.411       .  A
C476        C477   1.415       .  A
C476        C481   1.452   1_556  S
C477        C478   1.428       .  A
C477        C484   1.452       .  S
C478        C479   1.427       .  A
C479        C480   1.413       .  A
C479        C482   1.453       .  S
C480        C483   1.454   1_455  S
C481        N488   1.157       .  T
C482        N487   1.158       .  T
C483        N485   1.157       .  T
C484        N486   1.158       .  T
C489        C490   1.411       .  A
C489        C494   1.413       .  A
C490        C491   1.412       .  A
C490        C495   1.450       .  S
C491        C492   1.416       .  A
C491        C498   1.451       .  S
C492        C493   1.419       .  A
C493        C494   1.411       .  A
C493        C496   1.452       .  S
C494        C497   1.453       .  S
C495        N502   1.157       .  T
C496        N501   1.157       .  T
C497        N499   1.157       .  T
C498        N500   1.157       .  T
C503        C504   1.417       .  A
C503        C508   1.417       .  A
C504        C505   1.421       .  A
C504        C509   1.449       .  S
C505        C506   1.413       .  A
C505        C512   1.449       .  S
C506        C507   1.409       .  A
C507        C508   1.410       .  A
C507        C510   1.453       .  S
C508        C511   1.447       .  S
C509        N516   1.157       .  T
C510        N515   1.157       .  T
C511        N513   1.155       .  T
C512        N514   1.157       .  T
C517        C518   1.420       .  A
C517        C522   1.419       .  A
C518        C519   1.416       .  A
C518        C523   1.451       .  S
C519        C520   1.411       .  A
C519        C526   1.450       .  S
C520        C521   1.413       .  A
C521        C522   1.417       .  A
C521        C524   1.450       .  S
C522        C525   1.451       .  S
C523        N530   1.157       .  T
C524        N529   1.157       .  T
C525        N527   1.158       .  T
C526        N528   1.157       .  T
C531        C532   1.408       .  A
C531        C536   1.414       .  A
C532        C533   1.409       .  A
C532        C537   1.451       .  S
C533        C534   1.416       .  A
C533        C540   1.452       .  S
C534        C535   1.412       .  A
C535        C536   1.412       .  A
C535        C538   1.450       .  S
C536        C539   1.451   1_655  S
C537        N544   1.157       .  T
C538        N543   1.157       .  T
C539        N541   1.157       .  T
C540        N542   1.157       .  T
C545        C546   1.419       .  A
C545        C550   1.415       .  A
C546        C547   1.418       .  A
C546        C551   1.449       .  S
C547        C548   1.415       .  A
C547        C554   1.449       .  S
C548        C549   1.416       .  A
C549        C550   1.409       .  A
C549        C552   1.449       .  S
C550        C553   1.453       .  S
C551        N558   1.157       .  T
C552        N557   1.157       .  T
C553        N555   1.157       .  T
C554        N556   1.157       .  T
C559        C560   1.408       .  A
C559        C564   1.410       .  A
C560        C561   1.408       .  A
C560        C565   1.454       .  S
C561        C562   1.420       .  A
C561        C568   1.446       .  S
C562        C563   1.417       .  A
C563        C564   1.414       .  A
C563        C566   1.449       .  S
C564        C567   1.450       .  S
C565        N572   1.157       .  T
C566        N571   1.157       .  T
C567        N569   1.157       .  T
C568        N570   1.155       .  T
C573        C574   1.413       .  A
C573        C578   1.413       .  A
C574        C575   1.418       .  A
C574        C579   1.449       .  S
C575        C576   1.414       .  A
C575        C582   1.449       .  S
C576        C577   1.412       .  A
C577        C578   1.407       .  A
C577        C580   1.452       .  S
C578        C581   1.450       .  S
C579        N586   1.157       .  T
C580        N585   1.157   1_556  T
C581        N583   1.157       .  T
C582        N584   1.157       .  T
C587        C588   1.407       .  A
C587        C592   1.410       .  A
C588        C589   1.407       .  A
C588        C593   1.449       .  S
C589        C590   1.411       .  A
C589        C596   1.450       .  S
C590        C591   1.415       .  A
C591        C592   1.408       .  A
C591        C594   1.451       .  S
C592        C595   1.452       .  S
C593        N600   1.157       .  T
C594        N599   1.157       .  T
C595        N597   1.157       .  T
C596        N598   1.157   1_556  T
C601        C602   1.416       .  A
C601        C606   1.418       .  A
C602        C603   1.403       .  A
C602        C607   1.455       .  S
C603        C604   1.410       .  A
C603        C610   1.452       .  S
C604        C605   1.409       .  A
C605        C606   1.412       .  A
C605        C608   1.451       .  S
C606        C609   1.449       .  S
C607        N614   1.158       .  T
C608        N613   1.157       .  T
C609        N611   1.157       .  T
C610        N612   1.157       .  T
C615        C616   1.412       .  A
C615        C620   1.413       .  A
C616        C617   1.415       .  A
C616        C621   1.449       .  S
C617        C618   1.411       .  A
C617        C624   1.449       .  S
C618        C619   1.411       .  A
C619        C620   1.408       .  A
C619        C622   1.452       .  S
C620        C623   1.450       .  S
C621        N628   1.157       .  T
C622        N627   1.157       .  T
C623        N625   1.157       .  T
C624        N626   1.157       .  T
C629        C630   1.410       .  A
C629        C634   1.410       .  A
C630        C631   1.416       .  A
C630        C635   1.451       .  S
C631        C632   1.430       .  A
C631        C638   1.452       .  S
C632        C633   1.427       .  A
C633        C634   1.413       .  A
C633        C636   1.451       .  S
C634        C637   1.452   1_556  S
C635        N642   1.157       .  T
C636        N641   1.157       .  T
C637        N639   1.157       .  T
C638        N640   1.158       .  T
C643        C644   1.415       .  A
C643        C648   1.415       .  A
C644        C645   1.410       .  A
C644        C649   1.452   1_545  S
C645        C646   1.413       .  A
C645        C652   1.452       .  S
C646        C647   1.415       .  A
C647        C648   1.417       .  A
C647        C650   1.451       .  S
C648        C651   1.451   1_556  S
C649        N656   1.157       .  T
C650        N655   1.157       .  T
C651        N653   1.157       .  T
C652        N654   1.157       .  T
C657        C658   1.409       .  A
C657        C662   1.412       .  A
C658        C659   1.407       .  A
C658        C663   1.455       .  S
C659        C660   1.424       .  A
C659        C666   1.451       .  S
C660        C661   1.418       .  A
C661        C662   1.419       .  A
C661        C664   1.445       .  S
C662        C665   1.449       .  S
C663        N670   1.158   1_556  T
C664        N669   1.156       .  T
C665        N667   1.157       .  T
C666        N668   1.157       .  T
C671        C672   1.416       .  A
C671        C676   1.417       .  A
C672        C673   1.416       .  A
C672        C677   1.449       .  S
C673        C674   1.412       .  A
C673        C680   1.450       .  S
C674        C675   1.408       .  A
C675        C676   1.410       .  A
C675        C678   1.454       .  S
C676        C679   1.443       .  S
C677        N684   1.157       .  T
C678        N683   1.157       .  T
C679        N681   1.154       .  T
C680        N682   1.157       .  T
C685        C686   1.406       .  A
C685        C690   1.409       .  A
C686        C687   1.411       .  A
C686        C691   1.445       .  S
C687        C688   1.417       .  A
C687        C694   1.451       .  S
C688        C689   1.420       .  A
C689        C690   1.418       .  A
C689        C692   1.447       .  S
C690        C693   1.450       .  S
C691        N698   1.156       .  T
C692        N697   1.157       .  T
C693        N695   1.157       .  T
C694        N696   1.157       .  T
C699        C700   1.414       .  A
C699        C704   1.416       .  A
C700        C701   1.412       .  A
C700        C705   1.452       .  S
C701        C702   1.423       .  A
C701        C708   1.452       .  S
C702        C703   1.421       .  A
C703        C704   1.416       .  A
C703        C706   1.450       .  S
C704        C707   1.452       .  S
C705        N712   1.158       .  T
C706        N711   1.158       .  T
C707        N709   1.157       .  T
C708        N710   1.157       .  T
C713        C714   1.408       .  A
C713        C718   1.412       .  A
C714        C715   1.410       .  A
C714        C719   1.452       .  S
C715        C716   1.416       .  A
C715        C722   1.449       .  S
C716        C717   1.414       .  A
C717        C718   1.411       .  A
C717        C720   1.451       .  S
C718        C721   1.450       .  S
C719        N726   1.157       .  T
C720        N725   1.157       .  T
C721        N723   1.157       .  T
C722        N724   1.157       .  T
C727        C728   1.416       .  A
C727        C732   1.417       .  A
C728        C729   1.413       .  A
C728        C733   1.451       .  S
C729        C730   1.412       .  A
C729        C736   1.450       .  S
C730        C731   1.409       .  A
C731        C732   1.409       .  A
C731        C734   1.452   1_565  S
C732        C735   1.452       .  S
C733        N740   1.158       .  T
C734        N739   1.157       .  T
C735        N737   1.157       .  T
C736        N738   1.157       .  T
C741        C742   1.413       .  A
C741        C746   1.414       .  A
C742        C743   1.414       .  A
C742        C747   1.452       .  S
C743        C744   1.424       .  A
C743        C750   1.451       .  S
C744        C745   1.425       .  A
C745        C746   1.419       .  A
C745        C748   1.449       .  S
C746        C749   1.450       .  S
C747        N754   1.157       .  T
C748        N753   1.156       .  T
C749        N751   1.157       .  T
C750        N752   1.157       .  T
C755        C756   1.411       .  A
C755        C760   1.410       .  A
C756        C757   1.416       .  A
C756        C761   1.450       .  S
C757        C758   1.423       .  A
C757        C764   1.451       .  S
C758        C759   1.420       .  A
C759        C760   1.413       .  A
C759        C762   1.451       .  S
C760        C763   1.450       .  S
C761        N768   1.157       .  T
C762        N767   1.157       .  T
C763        N765   1.157       .  T
C764        N766   1.158       .  T
C769        C770   1.418       .  A
C769        C774   1.420       .  A
C770        C771   1.410       .  A
C770        C775   1.451       .  S
C771        C772   1.406       .  A
C771        C778   1.447       .  S
C772        C773   1.406       .  A
C773        C774   1.414       .  A
C773        C776   1.449       .  S
C774        C777   1.446       .  S
C775        N782   1.157       .  T
C776        N781   1.157       .  T
C777        N779   1.156       .  T
C778        N780   1.156       .  T
C783        C784   1.414       .  A
C783        C788   1.414       .  A
C784        C785   1.410       .  A
C784        C789   1.450       .  S
C785        C786   1.407       .  A
C785        C792   1.449       .  S
C786        C787   1.410       .  A
C787        C788   1.410       .  A
C787        C790   1.451       .  S
C788        C791   1.450       .  S
C789        N796   1.157   1_556  T
C790        N795   1.157       .  T
C791        N793   1.157       .  T
C792        N794   1.157       .  T
C797        C798   1.413       .  A
C797        C802   1.415       .  A
C798        C799   1.418       .  A
C798        C803   1.449       .  S
C799        C800   1.413       .  A
C799        C806   1.449       .  S
C800        C801   1.409       .  A
C801        C802   1.404       .  A
C801        C804   1.455       .  S
C802        C805   1.447       .  S
C803        N810   1.157       .  T
C804        N809   1.157       .  T
C805        N807   1.156       .  T
C806        N808   1.157       .  T
C811        C812   1.412       .  A
C811        C816   1.411       .  A
C812        C813   1.410       .  A
C812        C817   1.449       .  S
C813        C814   1.409       .  A
C813        C820   1.451       .  S
C814        C815   1.413       .  A
C815        C816   1.409       .  A
C815        C818   1.451       .  S
C816        C819   1.451       .  S
C817        N824   1.157       .  T
C818        N823   1.157       .  T
C819        N821   1.157       .  T
C820        N822   1.157       .  T
C825        C826   1.410       .  A
C825        C830   1.414       .  A
C826        C827   1.416       .  A
C826        C831   1.450       .  S
C827        C828   1.417       .  A
C827        C834   1.448       .  S
C828        C829   1.414       .  A
C829        C830   1.408       .  A
C829        C832   1.454       .  S
C830        C833   1.450       .  S
C831        N838   1.157       .  T
C832        N837   1.158       .  T
C833        N835   1.157       .  T
C834        N836   1.157       .  T
C839        C840   1.411       .  A
C839        C844   1.411       .  A
C840        C841   1.416       .  A
C840        C845   1.450   1_556  S
C841        C842   1.417       .  A
C841        C848   1.450       .  S
C842        C843   1.417       .  A
C843        C844   1.413       .  A
C843        C846   1.452       .  S
C844        C847   1.451       .  S
C845        N852   1.157       .  T
C846        N851   1.157       .  T
C847        N849   1.157       .  T
C848        N850   1.157       .  T
C853        C854   1.409       .  A
C853        C858   1.411   1_556  A
C854        C855   1.411       .  A
C854        C859   1.449       .  S
C855        C856   1.423       .  A
C855        C862   1.452       .  S
C856        C857   1.423       .  A
C857        C858   1.413   1_556  A
C857        C860   1.452   1_556  S
C858        C861   1.452       .  S
C859        N866   1.156       .  T
C860        N865   1.158       .  T
C861        N863   1.157       .  T
C862        N864   1.158       .  T
C867        C868   1.412       .  A
C867        C872   1.409       .  A
C868        C869   1.414       .  A
C868        C873   1.449       .  S
C869        C870   1.413       .  A
C869        C876   1.449       .  S
C870        C871   1.423       .  A
C871        C872   1.410       .  A
C871        C874   1.454       .  S
C872        C875   1.449       .  S
C873        N880   1.157       .  T
C874        N879   1.158       .  T
C875        N877   1.156       .  T
C876        N878   1.157       .  T
C881        C882   1.418       .  A
C881        C886   1.424       .  A
C882        C883   1.414       .  A
C882        C887   1.451       .  S
C883        C884   1.418       .  A
C883        C890   1.453   1_565  S
C884        C885   1.411   1_556  A
C885        C886   1.410   1_554  A
C885        C888   1.452       .  S
C886        C889   1.453   1_556  S
C887        N894   1.158       .  T
C888        N893   1.157       .  T
C889        N891   1.158       .  T
C890        N892   1.157       .  T
C895        C896   1.417       .  A
C895        C900   1.423       .  A
C896        C897   1.417       .  A
C896        C901   1.449       .  S
C897        C898   1.410       .  A
C897        C904   1.449       .  S
C898        C899   1.406       .  A
C899        C900   1.401       .  A
C899        C902   1.457       .  S
C900        C903   1.451       .  S
C901        N908   1.157       .  T
C902        N907   1.157   1_556  T
C903        N905   1.157       .  T
C904        N906   1.157       .  T
C909        C910   1.408       .  A
C909        C914   1.412       .  A
C910        C911   1.406       .  A
C910        C915   1.452       .  S
C911        C912   1.414       .  A
C911        C918   1.449       .  S
C912        C913   1.411       .  A
C913        C914   1.414       .  A
C913        C916   1.450       .  S
C914        C917   1.449       .  S
C915        N922   1.157       .  T
C916        N921   1.157       .  T
C917        N919   1.157       .  T
C918        N920   1.156       .  T
C923        C924   1.414       .  A
C923        C928   1.414       .  A
C924        C925   1.414       .  A
C924        C929   1.451       .  S
C925        C926   1.415       .  A
C925        C932   1.448       .  S
C926        C927   1.412       .  A
C927        C928   1.408       .  A
C927        C930   1.452       .  S
C928        C931   1.450       .  S
C929        N936   1.157       .  T
C930        N935   1.157       .  T
C931        N933   1.157       .  T
C932        N934   1.157       .  T
C937        C938   1.420       .  A
C937        C942   1.417       .  A
C938        C939   1.405       .  A
C938        C943   1.453       .  S
C939        C940   1.415       .  A
C939        C946   1.452       .  S
C940        C941   1.420       .  A
C941        C942   1.418       .  A
C941        C944   1.451       .  S
C942        C945   1.450       .  S
C943        N950   1.157       .  T
C944        N949   1.157       .  T
C945        N947   1.158       .  T
C946        N948   1.158       .  T
C951        C952   1.414       .  A
C951        C956   1.414       .  A
C952        C953   1.408       .  A
C952        C957   1.453       .  S
C953        C954   1.412       .  A
C953        C960   1.451       .  S
C954        C955   1.410       .  A
C955        C956   1.411       .  A
C955        C958   1.451       .  S
C956        C959   1.450       .  S
C957        N964   1.157       .  T
C958        N963   1.157       .  T
C959        N961   1.157       .  T
C960        N962   1.157       .  T
C965        C966   1.411       .  A
C965        C970   1.409       .  A
C966        C967   1.409       .  A
C966        C971   1.453       .  S
C967        C968   1.418       .  A
C967        C974   1.452       .  S
C968        C969   1.419       .  A
C969        C970   1.412       .  A
C969        C972   1.450       .  S
C970        C973   1.452       .  S
C971        N978   1.158       .  T
C972        N977   1.157       .  T
C973        N975   1.157       .  T
C974        N976   1.157       .  T
C979        C980   1.411       .  A
C979        C984   1.411       .  A
C980        C981   1.412       .  A
C980        C985   1.450   1_545  S
C981        C982   1.415       .  A
C981        C988   1.452       .  S
C982        C983   1.415       .  A
C983        C984   1.411       .  A
C983        C986   1.450       .  S
C984        C987   1.452       .  S
C985        N992   1.157       .  T
C986        N991   1.157       .  T
C987        N989   1.157       .  T
C988        N990   1.157       .  T
