geometry optimzed in LAMMPS
_audit_creation_date              2020-11-30 
_audit_creation_method            'lammps2cif' 
_symmetry_space_group_name_H-M    'P1' 
_symmetry_Int_Tables_number       1 
_symmetry_cell_setting            triclinic 
loop_ 
_symmetry_equiv_pos_as_xyz 
  x,y,z 
_cell_length_a                    47.69141517 
_cell_length_b                    46.74917640979391 
_cell_length_c                    35.37842649189857 
_cell_angle_alpha                 88.5070433204432 
_cell_angle_beta                  92.80325055316155 
_cell_angle_gamma                 117.22516822631468 
loop_ 
_atom_site_label 
_atom_site_type_symbol 
_atom_site_fract_x 
_atom_site_fract_y 
_atom_site_fract_z 
_atom_site_charge 
O1          O  0.16568623  0.06193003  0.76101722    -0.81500
O2          O  0.12919545  0.02563081  0.58992662    -0.66200
O3          O  0.16299624  0.03393964  0.69178718    -1.12800
C4          C  0.22524480  0.13963235  0.64777581     1.05400
O5          O  0.17758926  0.04310102  0.57040275    -0.79400
O6          O  0.23419622  0.08043440  0.61089058    -0.67000
Ni7        Ni  0.13594728  0.02485796  0.73342650     1.34900
C8          C  0.24342863  0.07429921  0.64299257     0.84100
O9          O  0.11433370  0.48775254  0.65831742    -0.80000
O10         O  0.10492103  0.48966838  0.71962528    -0.90200
C11         C  0.14771501  0.02647662  0.56471971     0.83700
O12         O  0.11489488  0.04931620  0.71555931    -0.68400
O13         O  0.21748397  0.12810557  0.61423251    -0.87700
C14         C  0.10452285  0.05304541  0.68300660     0.84500
C15         C  0.09920264  0.47526682  0.68796048     1.06100
H16         H  0.16225977  0.08600133  0.63676194     0.37900
O17         O  0.17342694  0.07319122  0.63714695    -1.10400
O18         O  0.22649275  0.06738396  0.67188343    -0.67000
Ni19       Ni  0.19345736  0.07793714  0.68600924     1.26300
O20         O  0.11170426  0.04337985  0.65304893    -0.67300
O21         O  0.22074933  0.12250106  0.67788018    -0.79600
C22         C  0.19467658  0.06910045  0.76487167     0.83900
O23         O  0.21172233  0.07945776  0.73628903    -0.66700
Ni24       Ni  0.19780351  0.08554962  0.59366878     1.27400
Ni25       Ni  0.14387623  0.02955775  0.64194870     1.26100
H26         H  0.17352874  0.02051724  0.69398670     0.38400
O27         O  0.25122701  0.99934823  0.09974646    -0.81500
O28         O  0.24815866  0.04087940  0.93096601    -0.66200
O29         O  0.22714811  0.01105469  0.03205880    -1.12800
C30         C  0.23876459  0.42099426  0.98586572     1.05400
O31         O  0.21343664  0.49547017  0.91347435    -0.79400
O32         O  0.18629245  0.43525150  0.94971027    -0.67000
Ni33       Ni  0.25240625  0.03669004  0.07391317     1.34900
C34         C  0.17243464  0.42809613  0.98087579     0.84100
O35         O  0.23726398  0.06737854  0.99137333    -0.80000
O36         O  0.25464049  0.07577100  0.05219499    -0.90200
C37         C  0.22777537  0.02390215  0.90574560     0.83700
O38         O  0.29396748  0.04875065  0.05535248    -0.68400
O39         O  0.24139811  0.43502738  0.95365142    -0.87700
C40         C  0.30446781  0.06055334  0.02297658     0.84500
C41         C  0.24855419  0.08559626  0.02032690     1.06100
H42         H  0.26795317  0.49417263  0.98035894     0.37900
O43         O  0.24587731  0.48907184  0.97958875    -1.10400
O44         O  0.18482827  0.44607574  0.01011445    -0.67000
Ni45       Ni  0.22969928  0.46980582  0.02690061     1.26300
O46         O  0.28586854  0.05351080  0.99351251    -0.67300
O47         O  0.23288771  0.43109234  0.01649940    -0.79600
C48         C  0.22586393  0.47205191  0.10554247     0.83900
O49         O  0.21401711  0.45427877  0.07652164    -0.66700
Ni50       Ni  0.22785390  0.46553148  0.93474815     1.27400
Ni51       Ni  0.24012644  0.02832690  0.98279545     1.26100
H52         H  0.20553719  0.00690405  0.03469295     0.38400
O53         O  0.10842897  0.42771673  0.43228038    -0.81500
O54         O  0.14633397  0.42036054  0.26419893    -0.66200
O55         O  0.13722231  0.44569504  0.36330770    -1.12800
C56         C  0.03649436  0.42464343  0.30647250     1.05400
O57         O  0.13253620  0.45668304  0.24102507    -0.79400
O58         O  0.09501296  0.48050483  0.27344361    -0.67000
Ni59       Ni  0.14064754  0.42228241  0.40689728     1.34900
C60         C  0.10356818  0.49635203  0.30406128     0.84100
O61         O  0.18304813  0.43568687  0.32786084    -0.80000
O62         O  0.17437557  0.41588326  0.38690646    -0.90200
C63         C  0.14793479  0.44053319  0.23831329     0.83700
O64         O  0.10994223  0.38098611  0.38810026    -0.68400
O65         O  0.04769726  0.42162790  0.27548683    -0.87700
C66         C  0.11043072  0.36789432  0.35711360     0.84500
C67         C  0.19019532  0.42339407  0.35697132     1.06100
H68         H  0.08567604  0.40172076  0.30686751     0.37900
O69         O  0.09982932  0.42449500  0.30590990    -1.10400
O70         O  0.11292601  0.48601021  0.33321154    -0.67000
Ni71       Ni  0.09590485  0.44222563  0.35180889     1.26300
O72         O  0.12451186  0.38483510  0.32849208    -0.67300
O73         O  0.05325863  0.43539312  0.33750770    -0.79600
C74         C  0.10471023  0.45301158  0.43110269     0.83900
O75         O  0.09608861  0.46146730  0.39983093    -0.66700
Ni76       Ni  0.09004120  0.43899842  0.25933522     1.27400
Ni77       Ni  0.14168243  0.43057555  0.31534371     1.26100
H78         H  0.15250118  0.46803955  0.36614108     0.38400
O79         O  0.38052684  0.34130281  0.56481776    -0.81500
O80         O  0.35671359  0.28690546  0.73310267    -0.66200
O81         O  0.37128389  0.33360789  0.64065949    -1.12800
C82         C  0.47692577  0.37504202  0.68306020     1.05400
O83         O  0.38733434  0.33047524  0.76657866    -0.79400
O84         O  0.41473255  0.38512761  0.72608660    -0.67000
Ni85       Ni  0.35244781  0.30807557  0.59649290     1.34900
C86         C  0.41752100  0.39981905  0.69483892     0.84100
O87         O  0.31878330  0.29090368  0.67849630    -0.80000
O88         O  0.31975018  0.27283137  0.62175607    -0.90200
C89         C  0.36405905  0.30250531  0.76364903     0.83700
O90         O  0.38093332  0.28983539  0.60512109    -0.68400
O91         O  0.46584698  0.37397798  0.71558097    -0.87700
C92         C  0.38120201  0.27395376  0.63497069     0.84500
C93         C  0.30580154  0.27095456  0.65202481     1.06100
H94         H  0.41450373  0.31120178  0.69364653     0.37900
O95         O  0.40743058  0.32751604  0.69354016    -1.10400
O96         O  0.42109019  0.38884270  0.66413620    -0.67000
Ni97       Ni  0.41624834  0.34890769  0.64599122     1.26300
O98         O  0.36571399  0.27340997  0.66368532    -0.67300
O99         O  0.45989978  0.36260958  0.65348608    -0.79600
C100        C  0.40743542  0.36540180  0.56852996     0.83900
O101        O  0.42494807  0.37107704  0.59831025    -0.66700
Ni102      Ni  0.42554378  0.35146838  0.73861221     1.27400
Ni103      Ni  0.36325448  0.30941533  0.68653305     1.26100
H104        H  0.36535381  0.35072607  0.64217746     0.38400
O105        O  0.30365324  0.28383171  0.09851720    -0.81500
O106        O  0.30598185  0.25883011  0.92410766    -0.66200
O107        O  0.29924864  0.28744036  0.02078930    -1.12800
C108        C  0.19288319  0.21725502  0.00404154     1.05400
O109        O  0.26330793  0.25937748  0.89756591    -0.79400
O110        O  0.24184160  0.28708719  0.94712391    -0.67000
Ni111      Ni  0.32919153  0.28577874  0.05789024     1.34900
C112        C  0.24203587  0.29933440  0.97877025     0.84100
O113        O  0.34472575  0.30536644  0.96853060    -0.80000
O114        O  0.36021419  0.29076356  0.02222291    -0.90200
C115        C  0.29012051  0.26000677  0.89517629     0.83700
O116        O  0.30832387  0.23992525  0.05351310    -0.68400
O117        O  0.19787155  0.22703527  0.96985928    -0.87700
C118        C  0.30480581  0.22497702  0.02271116     0.84500
C119        C  0.36586920  0.30368869  0.98956974     1.06100
H120        H  0.25781019  0.22061242  0.97661273     0.37900
O121        O  0.26023413  0.24225660  0.97604592    -1.10400
O122        O  0.24226293  0.28557197  0.01010439    -0.67000
Ni123      Ni  0.25665973  0.25483770  0.02605328     1.26300
O124        O  0.31394954  0.24052123  0.99181259    -0.67300
O125        O  0.21456169  0.22233702  0.02909796    -0.79600
C126        C  0.27553997  0.27893510  0.10238966     0.83900
O127        O  0.25409819  0.26802456  0.07625332    -0.66700
Ni128      Ni  0.23234154  0.24379919  0.93648187     1.27400
Ni129      Ni  0.30268748  0.27327859  0.97208161     1.26100
H130        H  0.30091539  0.30883777  0.01939945     0.38400
O131        O  0.34638184  0.37673258  0.43982616    -0.81500
O132        O  0.29022998  0.33800427  0.27080404    -0.66200
O133        O  0.33652307  0.35454353  0.36536508    -1.12800
C134        C  0.38223241  0.46049130  0.31494184     1.05400
O135        O  0.33436512  0.36316451  0.23994560    -0.79400
O136        O  0.39236562  0.40288157  0.27345072    -0.67000
Ni137      Ni  0.31257951  0.34427181  0.40983713     1.34900
C138        C  0.40509300  0.39761675  0.30353317     0.84100
O139        O  0.28963303  0.30139413  0.32967325    -0.80000
O140        O  0.27655669  0.30877844  0.38677124    -0.90200
C141        C  0.30518031  0.34313355  0.24073769     0.83700
O142        O  0.29617129  0.37356575  0.39530060    -0.68400
O143        O  0.37185593  0.44802719  0.28232643    -0.87700
C144        C  0.27922808  0.37109160  0.36546589     0.84500
C145        C  0.27144846  0.29202863  0.35706688     1.06100
H146        H  0.32086657  0.40021302  0.31221151     0.37900
O147        O  0.33463887  0.39035982  0.31019852    -1.10400
O148        O  0.39257802  0.39296880  0.33530047    -0.67000
Ni149      Ni  0.35972305  0.39954910  0.35562427     1.26300
O150        O  0.27877092  0.35402501  0.33755159    -0.67300
O151        O  0.38103137  0.44422694  0.34479056    -0.79600
C152        C  0.37491599  0.39651271  0.43398530     0.83900
O153        O  0.38466080  0.40727239  0.40148088    -0.66700
Ni154      Ni  0.35345181  0.40520349  0.26302657     1.27400
Ni155      Ni  0.31212754  0.34575815  0.31884396     1.26100
H156        H  0.34991325  0.34404427  0.36602598     0.38400
O157        O  0.42704660  0.09476531  0.56550431    -0.81500
O158        O  0.43587121  0.14453893  0.73026600    -0.66200
O159        O  0.45279631  0.12996967  0.62987379    -1.12800
C160        C  0.43464366  0.02920746  0.68540020     1.05400
O161        O  0.47144238  0.12926789  0.75152972    -0.79400
O162        O  0.49218588  0.08958181  0.71734261    -0.67000
Ni163      Ni  0.42717057  0.13175858  0.58759251     1.34900
C164        C  0.00640520  0.09623415  0.68190957     0.84100
O165        O  0.44701241  0.17934040  0.66557459    -0.80000
O166        O  0.42608767  0.16951848  0.60611540    -0.90200
C167        C  0.45617464  0.14535704  0.75566000     0.83700
O168        O  0.38710082  0.10466379  0.60863604    -0.68400
O169        O  0.43378321  0.04156988  0.71698124    -0.87700
C170        C  0.37711854  0.10649326  0.64072814     0.84500
C171        C  0.43544508  0.18683418  0.63584829     1.06100
H172        H  0.41327139  0.08054062  0.68805602     0.37900
O173        O  0.43571251  0.09455246  0.68801960    -1.10400
O174        O  0.49394200  0.10504346  0.65720480    -0.67000
Ni175      Ni  0.44959600  0.08805727  0.64122028     1.26300
O176        O  0.39618388  0.12056265  0.66876638    -0.67300
O177        O  0.44347964  0.04547615  0.65467387    -0.79600
C178        C  0.45215817  0.09208906  0.56291919     0.83900
O179        O  0.46396384  0.08494468  0.59233020    -0.66700
Ni180      Ni  0.45245371  0.08538084  0.73329964     1.27400
Ni181      Ni  0.44185633  0.13726778  0.67856367     1.26100
H182        H  0.47453103  0.14509522  0.62577097     0.38400
O183        O  0.01665729  0.23868287  0.90421352    -0.81500
O184        O  0.04038488  0.24345973  0.07833769    -0.66200
O185        O  0.01633296  0.21474450  0.97674535    -1.12800
C186        C  0.44345380  0.25450862  0.99506821     1.05400
O187        O  0.48945942  0.21380211  0.09484607    -0.79400
O188        O  0.43638477  0.19190391  0.04668404    -0.67000
Ni189      Ni  0.04636567  0.23266565  0.93820376     1.34900
C190        C  0.43123769  0.17333232  0.01874818     0.84100
O191        O  0.06213448  0.21739323  0.02922834    -0.80000
O192        O  0.07692830  0.22522715  0.96877814    -0.90200
C193        C  0.02094728  0.22510119  0.10195148     0.83700
O194        O  0.06557677  0.27784827  0.95221603    -0.68400
O195        O  0.44928054  0.25390466  0.03081105    -0.87700
C196        C  0.07277522  0.29172984  0.98438494     0.84500
C197        C  0.07939635  0.21726747  0.00319057     1.06100
H198        H  0.00745004  0.26606891  0.01870013     0.37900
O199        O  0.49699938  0.24321389  0.02201218    -1.10400
O200        O  0.44978280  0.18199938  0.99084697    -0.67000
Ni201      Ni  0.48128558  0.22488797  0.97328268     1.26300
O202        O  0.06189216  0.27549857  0.01461277    -0.67300
O203        O  0.44977839  0.23908653  0.97045829    -0.79600
C204        C  0.48940661  0.21718761  0.89713387     0.83900
O205        O  0.46935638  0.20734665  0.92296754    -0.66700
Ni206      Ni  0.46911822  0.23353002  0.06174058     1.27400
Ni207      Ni  0.03056293  0.23102874  0.02666355     1.26100
H208        H  0.00846758  0.19167075  0.97710905     0.38400
O209        O  0.06811662  0.15807865  0.23697018    -0.81500
O210        O  0.02645242  0.11400065  0.40095057    -0.66200
O211        O  0.03818750  0.15190741  0.30234865    -1.12800
C212        C  0.14059286  0.21230302  0.35691859     1.05400
O213        O  0.04404547  0.16286209  0.42418844    -0.79400
O214        O  0.08348455  0.22109938  0.39106709    -0.67000
Ni215      Ni  0.03109206  0.12589643  0.25877678     1.34900
C216        C  0.07588456  0.23085325  0.36031328     0.84100
O217        O  0.48763094  0.10311760  0.33968516    -0.80000
O218        O  0.49144201  0.09217171  0.27941528    -0.90200
C219        C  0.02690694  0.13250399  0.42694318     0.83700
O220        O  0.05576475  0.10533350  0.27677508    -0.68400
O221        O  0.12851752  0.20186467  0.38900273    -0.87700
C222        C  0.05707728  0.09275831  0.30861414     0.84500
C223        C  0.47621191  0.08690913  0.30959148     1.06100
H224        H  0.08734690  0.14822917  0.35912986     0.37900
O225        O  0.07506858  0.15989007  0.35949818    -1.10400
O226        O  0.06855892  0.21420367  0.33018943    -0.67000
Ni227      Ni  0.08103774  0.18284196  0.31305565     1.26300
O228        O  0.04507666  0.09786219  0.33773914    -0.67300
O229        O  0.12441076  0.21072302  0.32622198    -0.79600
C230        C  0.07284556  0.18695637  0.23509271     0.83900
O231        O  0.08366236  0.20406923  0.26464314    -0.66700
Ni232      Ni  0.08636581  0.18259617  0.40555153     1.27400
Ni233      Ni  0.03222802  0.13088869  0.35028512     1.26100
H234        H  0.02491439  0.16251490  0.29982417     0.38400
C235        C  0.06054596  0.23867650  0.15632936    -0.26900
C236        C  0.03335341  0.21564084  0.13697306    -0.15000
C237        C  0.02007623  0.18334758  0.14946247     0.35600
C238        C  0.03416527  0.17493633  0.18078997    -0.26400
C239        C  0.06091098  0.19801531  0.20081196    -0.15600
C240        C  0.07405804  0.23037699  0.18831135     0.36700
N241        N  0.10150840  0.25515025  0.20675994    -0.89900
H242        H  0.07129706  0.26344438  0.14662979     0.17800
H243        H  0.02364732  0.15007425  0.19012728     0.17800
N244        N  0.99312171  0.15889327  0.12944808    -0.88900
H245        H  0.11956454  0.24832106  0.20747748     0.35200
H246        H  0.09622106  0.25740334  0.23447495     0.40300
H247        H  0.97368317  0.16272770  0.13442445     0.39900
H248        H  0.98781447  0.13610686  0.14051684     0.34800
C249        C  0.49564456  0.18414413  0.80156293    -0.26900
C250        C  0.46385363  0.16631369  0.78968228    -0.15000
C251        C  0.44046099  0.16719914  0.81207048     0.35600
C252        C  0.44923177  0.18456142  0.84624381    -0.26400
C253        C  0.48110377  0.20184801  0.85869789    -0.15600
C254        C  0.00364651  0.19481587  0.84022763     0.36700
N255        N  0.03517188  0.20610246  0.85635611    -0.89900
H256        H  0.01281399  0.17388856  0.79178747     0.17800
H257        H  0.43086642  0.18408154  0.86350443     0.17800
N258        N  0.40756534  0.14958384  0.80173009    -0.88900
H259        H  0.04911368  0.20089309  0.83859644     0.35200
H260        H  0.03370571  0.19322215  0.88142684     0.40300
H261        H  0.40196120  0.12533513  0.79883298     0.39900
H262        H  0.40336940  0.15822003  0.77562946     0.34800
C263        C  0.98877772  0.13588736  0.46939740    -0.26900
C264        C  0.00568442  0.11958923  0.45926194    -0.15000
C265        C  0.00344964  0.09311630  0.48164587     0.35600
C266        C  0.48467821  0.08361656  0.51476839    -0.26400
C267        C  0.46918234  0.10083215  0.52701322    -0.15600
C268        C  0.47202534  0.12823647  0.50619641     0.36700
N269        N  0.45780433  0.14735937  0.51898880    -0.89900
H270        H  0.99060391  0.15633313  0.45256653     0.17800
H271        H  0.48313001  0.06293604  0.53086456     0.17800
N272        N  0.02084246  0.07603541  0.47347838    -0.88900
H273        H  0.46160271  0.16627393  0.50015034     0.35200
H274        H  0.46935544  0.15794822  0.54458256     0.40300
H275        H  0.04479994  0.09246981  0.47319524     0.39900
H276        H  0.01354115  0.06587943  0.44658498     0.34800
C277        C  0.22745103  0.24618646  0.38533285    -0.26900
C278        C  0.24076652  0.26386254  0.35278776    -0.15000
C279        C  0.22169687  0.26021622  0.31987693     0.35600
C280        C  0.18913136  0.24177387  0.32134020    -0.26400
C281        C  0.17523041  0.22709627  0.35526379    -0.15600
C282        C  0.19481800  0.22748756  0.38698328     0.36700
N283        N  0.18173325  0.21005016  0.42113113    -0.89900
H284        H  0.24242623  0.24878496  0.41040401     0.17800
H285        H  0.17469100  0.24069776  0.29627345     0.17800
N286        N  0.23486826  0.27748598  0.28590737    -0.88900
H287        H  0.19948217  0.21415442  0.44195211     0.35200
H288        H  0.17153545  0.18553302  0.41478496     0.40300
H289        H  0.22442003  0.29246983  0.27922701     0.39900
H290        H  0.22888116  0.26082278  0.26404348     0.34800
C291        C  0.40281927  0.01288427  0.27953661    -0.26900
C292        C  0.39836261  0.49580738  0.31749907    -0.15000
C293        C  0.41359491  0.51173825  0.35153396     0.35600
C294        C  0.43578219  0.04306452  0.34592046    -0.26400
C295        C  0.44514301  0.05865334  0.31093945    -0.15600
C296        C  0.42658793  0.04436776  0.27784980     0.36700
N297        N  0.43159558  0.06072221  0.24207180    -0.89900
H298        H  0.38898756  0.50269038  0.25822483     0.17800
H299        H  0.95254841  0.05412335  0.37071725     0.17800
N300        N  0.40612750  0.49544197  0.38748079    -0.88900
H301        H  0.45286209  0.06380599  0.23153953     0.35200
H302        H  0.43232829  0.08316285  0.24587699     0.40300
H303        H  0.38280518  0.49003132  0.39257997     0.39900
H304        H  0.42013372  0.51059147  0.40938755     0.34800
C305        C  0.27286656  0.32038350  0.14034813    -0.26900
C306        C  0.26962757  0.28903608  0.13883421    -0.15000
C307        C  0.27284650  0.27381971  0.17270026     0.35600
C308        C  0.28245383  0.29145263  0.20643476    -0.26400
C309        C  0.28920935  0.32392090  0.20687456    -0.15600
C310        C  0.28305973  0.33810376  0.17391609     0.36700
N311        N  0.28826149  0.37081537  0.17344736    -0.89900
H312        H  0.27083366  0.33237223  0.11446316     0.17800
H313        H  0.28664932  0.28032505  0.23189609     0.17800
N314        N  0.26876711  0.24137668  0.17323135    -0.88900
H315        H  0.31200894  0.38571368  0.18067062     0.35200
H316        H  0.27454050  0.37330193  0.19404180     0.40300
H317        H  0.26085999  0.23064246  0.14671246     0.39900
H318        H  0.25072139  0.22810115  0.19160271     0.34800
C319        C  0.39156831  0.28641221  0.94613404    -0.26900
C320        C  0.39526004  0.30924634  0.97336850    -0.15000
C321        C  0.42228206  0.32165738  0.99766353     0.35600
C322        C  0.43934452  0.30433474  0.00231284    -0.26400
C323        C  0.43020454  0.27582236  0.98195819    -0.15600
C324        C  0.40803225  0.26841111  0.95115445     0.36700
N325        N  0.39943785  0.24116124  0.92721589    -0.96200
H326        H  0.37158456  0.27792921  0.92599007     0.17800
H327        H  0.45819558  0.31180602  0.02395691     0.17800
N328        N  0.42966169  0.34849342  0.02201699    -0.88900
H329        H  0.39165048  0.22042135  0.94401102     0.35200
H330        H  0.41934176  0.24412568  0.91310279     0.40300
H331        H  0.41452751  0.35865733  0.01535962     0.39900
H332        H  0.45234250  0.36614183  0.01597466     0.34800
C333        C  0.15447545  0.22039405  0.04403797    -0.26900
C334        C  0.16042149  0.20397512  0.01539866    -0.15000
C335        C  0.13604107  0.18480747  0.98965172     0.35600
C336        C  0.10781369  0.18689141  0.98855916    -0.26400
C337        C  0.10400042  0.20782783  0.01297159    -0.15600
C338        C  0.12629306  0.22287909  0.04282194     0.36700
N339        N  0.12192571  0.24353469  0.06878927    -0.89900
H340        H  0.17338276  0.23499289  0.06396504     0.17800
H341        H  0.09001368  0.17436114  0.96651791     0.17800
N342        N  0.14120361  0.16585608  0.96224744    -0.88900
H343        H  0.14165417  0.25454108  0.08730458     0.35200
H344        H  0.10307935  0.22898941  0.08552795     0.40300
H345        H  0.13795125  0.17381494  0.93526409     0.39900
H346        H  0.12398864  0.14200490  0.96522337     0.34800
C347        C  0.34396228  0.26440273  0.81734435    -0.26900
C348        C  0.34323127  0.28940054  0.79543000    -0.15000
C349        C  0.32222085  0.30167122  0.80356471     0.35600
C350        C  0.30313374  0.28958875  0.83479842    -0.26400
C351        C  0.30501979  0.26582566  0.85829147    -0.15600
C352        C  0.32486709  0.25213103  0.84858397     0.36700
N353        N  0.32627078  0.22594219  0.86948620    -0.89900
H354        H  0.35963493  0.25450965  0.81028969     0.17800
H355        H  0.28800564  0.30007621  0.84204592     0.17800
N356        N  0.32043346  0.32640587  0.78005657    -0.88900
H357        H  0.32075874  0.20720858  0.85042683     0.35200
H358        H  0.30879119  0.21645622  0.88932886     0.40300
H359        H  0.34195479  0.34719021  0.78334611     0.39900
H360        H  0.30314075  0.33216199  0.78928838     0.34800
C361        C  0.42199999  0.47990527  0.72167905    -0.26900
C362        C  0.42553709  0.49495805  0.68598208    -0.15000
C363        C  0.42310469  0.47727328  0.65320701     0.35600
C364        C  0.41917150  0.44586631  0.65719163    -0.26400
C365        C  0.41784122  0.43158338  0.69306165    -0.15600
C366        C  0.41859107  0.44866091  0.72571553     0.36700
N367        N  0.41691708  0.43491079  0.76290376    -0.89900
H368        H  0.42339804  0.49303530  0.74705708     0.17800
H369        H  0.41786240  0.43276677  0.63181315     0.17800
N370        N  0.42519201  0.49121255  0.61605783    -0.88900
H371        H  0.41571290  0.44994829  0.78344996     0.35200
H372        H  0.43811477  0.43382636  0.76875284     0.40300
H373        H  0.40586408  0.99665958  0.61110239     0.39900
H374        H  0.42418352  0.47527153  0.59521723     0.34800
C375        C  0.41913535  0.22159504  0.67045689    -0.26900
C376        C  0.42895721  0.21482856  0.63666504    -0.15000
C377        C  0.42658955  0.23070221  0.60300776     0.35600
C378        C  0.41168576  0.25058871  0.60326188    -0.26400
C379        C  0.39922985  0.25507348  0.63648649    -0.15600
C380        C  0.40436139  0.24144807  0.67076088     0.36700
N381        N  0.39414853  0.24706124  0.70600068    -0.89900
H382        H  0.42104149  0.20978445  0.69653436     0.17800
H383        H  0.40896426  0.26178485  0.57708715     0.17800
N384        N  0.43856267  0.22585397  0.56851268    -0.88900
H385        H  0.41382769  0.25741583  0.72471164     0.35200
H386        H  0.37839319  0.22486244  0.71721807     0.40300
H387        H  0.46300416  0.23500708  0.57261174     0.39900
H388        H  0.43480665  0.23908218  0.54631733     0.34800
C389        C  0.40226122  0.40876663  0.53497990    -0.26900
C390        C  0.41644054  0.38822168  0.53679058    -0.15000
C391        C  0.42625016  0.38057527  0.50318499     0.35600
C392        C  0.41687843  0.38909833  0.46829364    -0.26400
C393        C  0.39741555  0.40434894  0.46662286    -0.15600
C394        C  0.39210534  0.41649234  0.50016644     0.36700
N395        N  0.37424689  0.43429697  0.49999542    -0.89900
H396        H  0.39492333  0.41497006  0.56075821     0.17800
H397        H  0.42117208  0.37984153  0.44263175     0.17800
N398        N  0.44237728  0.36104833  0.50343732    -0.88900
H399        H  0.35280849  0.41983649  0.51246851     0.35200
H400        H  0.36901582  0.43940102  0.47238484     0.40300
H401        H  0.44821676  0.35677262  0.53113853     0.39900
H402        H  0.46382639  0.37440125  0.49047606     0.34800
C403        C  0.23686387  0.42099803  0.38774425    -0.26900
C404        C  0.21632625  0.41479426  0.35588292    -0.15000
C405        C  0.21790361  0.39585279  0.32638903     0.35600
C406        C  0.23892380  0.38261245  0.33006532    -0.26400
C407        C  0.25878702  0.38763591  0.36268824    -0.15600
C408        C  0.25820068  0.40809903  0.39136715     0.36700
N409        N  0.27855172  0.41616000  0.42470070    -0.89900
H410        H  0.23577710  0.43543670  0.41057967     0.17800
H411        H  0.23900681  0.36753492  0.30736342     0.17800
N412        N  0.19733498  0.38818714  0.29324463    -0.88900
H413        H  0.30200325  0.42702352  0.41667628     0.35200
H414        H  0.27371202  0.39519875  0.44019771     0.40300
H415        H  0.20141962  0.40957477  0.27914405     0.39900
H416        H  0.17396403  0.37670613  0.30151341     0.34800
C417        C  0.48329560  0.39840491  0.33452679    -0.26900
C418        C  0.00216935  0.41501148  0.30580836    -0.15000
C419        C  0.48771949  0.42181466  0.27165590     0.35600
C420        C  0.45558833  0.41416401  0.27128122    -0.26400
C421        C  0.43709000  0.39935559  0.30247493    -0.15600
C422        C  0.45099025  0.39033818  0.33400036     0.36700
N423        N  0.43245137  0.37323666  0.36552311    -0.89900
H424        H  0.49400107  0.39201195  0.35886441     0.17800
H425        H  0.44538102  0.42125209  0.24705725     0.17800
N426        N  0.00135289  0.42730538  0.23715374    -0.88900
H427        H  0.44633026  0.36877772  0.38631758     0.35200
H428        H  0.41547533  0.35077140  0.35567765     0.40300
H429        H  0.01724209  0.45166128  0.24048296     0.39900
H430        H  0.49232123  0.44188148  0.21842906     0.34800
C431        C  0.08763609  0.06832022  0.27802838    -0.26900
C432        C  0.07280521  0.07095599  0.31042875    -0.15000
C433        C  0.07249805  0.05187270  0.34240176     0.35600
C434        C  0.08477934  0.02947379  0.34008846    -0.26400
C435        C  0.09742055  0.02530743  0.30661543    -0.15600
C436        C  0.09943479  0.04588051  0.27559319     0.36700
N437        N  0.10906059  0.54102781  0.23895436    -0.89900
H438        H  0.08923002  0.08316289  0.25339287     0.17800
H439        H  0.08288305  0.01391510  0.36409786     0.17800
N440        N  0.05879233  0.05429774  0.37670387    -0.88900
H441        H  0.13181158  0.54319968  0.24304991     0.35200
H442        H  0.09402448  0.51847133  0.22760776     0.40300
H443        H  0.07315793  0.07708727  0.38805394     0.39900
H444        H  0.05919172  0.03770095  0.39684182     0.34800
C445        C  0.08516631  0.31358092  0.38896812    -0.26900
C446        C  0.09593399  0.33163865  0.35549679    -0.15000
C447        C  0.09523441  0.31482226  0.32234915     0.35600
C448        C  0.08651110  0.28154310  0.32437771    -0.26400
C449        C  0.07841180  0.26417096  0.35864231    -0.15600
C450        C  0.07676857  0.28056975  0.39102112     0.36700
N451        N  0.06682998  0.26459802  0.42661109    -0.89900
H452        H  0.08463231  0.32546701  0.41460608     0.17800
H453        H  0.08759557  0.26945347  0.29922140     0.17800
N454        N  0.10423374  0.33157842  0.28687094    -0.88900
H455        H  0.08351629  0.25762316  0.43753471     0.35200
H456        H  0.04508573  0.24424556  0.42228867     0.40300
H457        H  0.08746645  0.33940861  0.27890291     0.39900
H458        H  0.10330747  0.31600448  0.26561644     0.34800
C459        C  0.18725173  0.47967367  0.19474768    -0.26900
C460        C  0.16945966  0.44752264  0.20600071    -0.15000
C461        C  0.17132516  0.42316513  0.18488095     0.35600
C462        C  0.19043509  0.43160747  0.15283421    -0.26400
C463        C  0.20840702  0.46394795  0.14175362    -0.15600
C464        C  0.20653374  0.48810762  0.16344896     0.36700
N465        N  0.22257720  0.52147102  0.15332585    -0.89900
H466        H  0.18591914  0.49865476  0.21031455     0.17800
H467        H  0.19102645  0.41279709  0.13614815     0.17800
N468        N  0.15251146  0.38992171  0.19461594    -0.88900
H469        H  0.21560375  0.52426507  0.12556854     0.35200
H470        H  0.24688189  0.52905864  0.15499046     0.40300
H471        H  0.16126214  0.38579567  0.22072832     0.39900
H472        H  0.15527848  0.37501243  0.17519554     0.34800
C473        C  0.13512465  0.37810263  0.01746241    -0.26900
C474        C  0.14249661  0.39570065  0.98311758    -0.15000
C475        C  0.12410740  0.37912191  0.95030433     0.35600
C476        C  0.10118617  0.34642605  0.95222772    -0.26400
C477        C  0.09520088  0.32813866  0.98596016    -0.15600
C478        C  0.11218263  0.34514117  0.01928279     0.36700
N479        N  0.10773238  0.32947314  0.05539102    -0.89900
H480        H  0.14859616  0.38949781  0.04309801     0.17800
H481        H  0.08840787  0.33492905  0.92628885     0.17800
N482        N  0.12800606  0.39459525  0.91407061    -0.88900
H483        H  0.11286087  0.31008475  0.05359664     0.35200
H484        H  0.08414978  0.32092186  0.06217736     0.40300
H485        H  0.14992739  0.39931113  0.90401806     0.39900
H486        H  0.12668666  0.41614284  0.91696515     0.34800
C487        C  0.38424333  0.12635671  0.98548657    -0.26900
C488        C  0.40134829  0.14102200  0.01921609    -0.15000
C489        C  0.38725550  0.12655722  0.05372328     0.35600
C490        C  0.35706947  0.09941089  0.05392586    -0.26400
C491        C  0.33910134  0.08570107  0.02039377    -0.15600
C492        C  0.35354768  0.09944888  0.98573650     0.36700
N493        N  0.33696067  0.08675894  0.95045098    -0.89900
H494        H  0.39400242  0.13680905  0.95856401     0.17800
H495        H  0.34708056  0.08993347  0.08104791     0.17800
N496        N  0.40329347  0.13969039  0.08918083    -0.88900
H497        H  0.35071271  0.07959980  0.93484662     0.35200
H498        H  0.33478632  0.10529372  0.93553013     0.40300
H499        H  0.38886612  0.14615007  0.10450770     0.39900
H500        H  0.40622434  0.12166021  0.10429412     0.34800
C501        C  0.25725083  0.13647427  0.05044713    -0.26900
C502        C  0.25796489  0.12061647  0.01757362    -0.15000
C503        C  0.27349451  0.13944868  0.98598269     0.35600
C504        C  0.28852919  0.17312566  0.98846590    -0.26400
C505        C  0.28888292  0.18901413  0.02194210    -0.15600
C506        C  0.27217978  0.17022456  0.05299300     0.36700
N507        N  0.27037028  0.18522959  0.08714025    -0.89900
H508        H  0.24549113  0.12230738  0.07482380     0.17800
H509        H  0.30060236  0.18693781  0.96403989     0.17800
N510        N  0.27586326  0.12523251  0.95166888    -0.88900
H511        H  0.25849772  0.16796536  0.10771332     0.35200
H512        H  0.25659794  0.19697541  0.08070479     0.40300
H513        H  0.25310629  0.11079892  0.94045288     0.39900
H514        H  0.28704989  0.11088657  0.95796279     0.34800
C515        C  0.25490244  0.38401356  0.95537484    -0.26900
C516        C  0.24154788  0.39074471  0.98639117    -0.15000
C517        C  0.22868567  0.36725405  0.01495643     0.35600
C518        C  0.22900631  0.33763489  0.01159296    -0.26400
C519        C  0.24166821  0.33068708  0.98004989    -0.15600
C520        C  0.25502297  0.35448088  0.95178855     0.36700
N521        N  0.26958556  0.34989664  0.91956731    -0.89900
H522        H  0.26519361  0.40178605  0.93324953     0.17800
H523        H  0.21878794  0.31976278  0.03365628     0.17800
N524        N  0.21452151  0.37285135  0.04689713    -0.88900
H525        H  0.25254971  0.33135630  0.90297894     0.35200
H526        H  0.28725136  0.34372471  0.92894777     0.40300
H527        H  0.22628556  0.37027130  0.07146542     0.39900
H528        H  0.19102542  0.35512441  0.04723315     0.34800
C529        C  0.19135929  0.06148827  0.83507947    -0.26900
C530        C  0.20725847  0.06284819  0.80205750    -0.15000
C531        C  0.23170978  0.05353299  0.80447064     0.35600
C532        C  0.23891051  0.04236944  0.83923364    -0.26400
C533        C  0.22195115  0.03968048  0.87152373    -0.15600
C534        C  0.19841467  0.05021519  0.86966913     0.36700
N535        N  0.18051848  0.04895389  0.90181264    -0.89900
H536        H  0.17250534  0.06837970  0.83381480     0.17800
H537        H  0.25695539  0.03433437  0.84074645     0.17800
N538        N  0.24797392  0.05360505  0.77131517    -0.88900
H539        H  0.18533332  0.07255396  0.90797239     0.35200
H540        H  0.18755506  0.04019029  0.92593891     0.40300
H541        H  0.23172549  0.03602077  0.75296773     0.39900
H542        H  0.26569462  0.04683129  0.77810571     0.34800
C543        C  0.28726947  0.06462948  0.61923631    -0.26900
C544        C  0.27632840  0.07762988  0.64694453    -0.15000
C545        C  0.29867265  0.09813968  0.67454983     0.35600
C546        C  0.33074574  0.10535969  0.67348464    -0.26400
C547        C  0.34198712  0.09351447  0.64473582    -0.15600
C548        C  0.31950473  0.07215113  0.61797031     0.36700
N549        N  0.32924684  0.05828694  0.58890595    -0.89900
H550        H  0.27079505  0.04920748  0.59760641     0.17800
H551        H  0.34730076  0.12205585  0.69411121     0.17800
N552        N  0.29007363  0.11415903  0.70227650    -0.88900
H553        H  0.32283726  0.06492243  0.56269906     0.35200
H554        H  0.31683187  0.03325627  0.59135233     0.40300
H555        H  0.27287792  0.09683779  0.71883066     0.39900
H556        H  0.28054430  0.12789613  0.68829564     0.34800
C557        C  0.05455752  0.09434611  0.71118538    -0.26900
C558        C  0.03550579  0.09140616  0.67847385    -0.15000
C559        C  0.04136278  0.07832268  0.64569703     0.35600
C560        C  0.06483744  0.06743174  0.64714990    -0.26400
C561        C  0.08258284  0.06864428  0.68074343    -0.15600
C562        C  0.07785935  0.08354866  0.71276169     0.36700
N563        N  0.09630096  0.08728180  0.74737171    -0.89900
H564        H  0.05058028  0.10439555  0.73642399     0.17800
H565        H  0.06819785  0.05652331  0.62225761     0.17800
N566        N  0.52375823  0.07768414  0.61561230    -0.88900
H567        H  0.08919047  0.09752447  0.76846903     0.35200
H568        H  0.11963890  0.10363451  0.74204210     0.40300
H569        H  0.50103664  0.05930404  0.61987145     0.39900
H570        H  0.53251311  0.07006427  0.59354601     0.34800
C571        C  0.05311568  0.43577491  0.65154779    -0.26900
C572        C  0.07180396  0.44352642  0.68511109    -0.15000
C573        C  0.06099495  0.42361280  0.71719061     0.35600
C574        C  0.03041920  0.39830989  0.71629567    -0.26400
C575        C  0.51113356  0.39365370  0.67943119    -0.15600
C576        C  0.02259744  0.41052243  0.65054747     0.36700
N577        N  0.50476808  0.40552863  0.61171492    -0.89900
H578        H  0.06076877  0.95105934  0.61679802     0.17800
H579        H  0.02154099  0.38435034  0.74183156     0.17800
N580        N  0.08036184  0.43003147  0.75127486    -0.88900
H581        H  0.01311786  0.92272947  0.58591407     0.35200
H582        H  0.50443379  0.42714272  0.60411046     0.40300
H583        H  0.08298094  0.40948770  0.75822190     0.39900
H584        H  0.06847186  0.43403623  0.77298673     0.34800
C585        C  0.25612679  0.18868789  0.68632822    -0.26900
C586        C  0.24017089  0.17484413  0.65197775    -0.15000
C587        C  0.23897145  0.19503648  0.62218063     0.35600
C588        C  0.25707607  0.22820993  0.62547102    -0.26400
C589        C  0.27664451  0.24153090  0.65764688    -0.15600
C590        C  0.27427079  0.22204798  0.68958346     0.36700
N591        N  0.29255929  0.23578106  0.72381132    -0.89900
H592        H  0.25603033  0.17347698  0.71000342     0.17800
H593        H  0.25837409  0.24334326  0.60117523     0.17800
N594        N  0.22044702  0.18211302  0.58797908    -0.88900
H595        H  0.28906675  0.21791235  0.74409052     0.35200
H596        H  0.28407744  0.25068173  0.73498806     0.40300
H597        H  0.23554541  0.18972027  0.56533756     0.39900
H598        H  0.20458150  0.19176318  0.58421044     0.34800
C599        C  0.10736744  0.45754887  0.50213551    -0.26900
C600        C  0.11175749  0.47282618  0.46652585    -0.15000
C601        C  0.12722909  0.50695506  0.46556814     0.35600
C602        C  0.15456465  0.99738618  0.51027400    -0.26400
C603        C  0.13489643  0.00667737  0.52937541    -0.15600
C604        C  0.11787643  0.47523323  0.53624830     0.36700
N605        N  0.11450874  0.45868498  0.57177458    -0.89900
H606        H  0.09631747  0.43151197  0.50334470     0.17800
H607        H  0.17848545  0.00455793  0.52109171     0.17800
N608        N  0.13356859  0.52362400  0.42983988    -0.88900
H609        H  0.10365277  0.43379090  0.56772279     0.35200
H610        H  0.09220358  0.03093885  0.53081570     0.40300
H611        H  0.14951587  0.51818496  0.41624220     0.39900
H612        H  0.18476140  0.99108785  0.45150993     0.34800
O613        O  0.16650828  0.56717311  0.76643091    -0.81500
O614        O  0.12814175  0.52611925  0.59740429    -0.66200
O615        O  0.16303390  0.53658719  0.69927675    -1.12800
C616        C  0.22314531  0.64217001  0.65518739     1.05400
O617        O  0.17610793  0.54723248  0.57474702    -0.79400
O618        O  0.23250121  0.58398062  0.61603913    -0.67000
Ni619      Ni  0.13664023  0.52886508  0.74127309     1.34900
C620        C  0.24244054  0.57694461  0.64722166     0.84100
O621        O  0.11482587  0.98581218  0.64897892    -0.80000
O622        O  0.10427999  0.98638519  0.71002541    -0.90200
C623        C  0.14640294  0.52877206  0.57084981     0.83700
O624        O  0.11496965  0.55242685  0.72269997    -0.68400
O625        O  0.21469479  0.63087984  0.62168000    -0.87700
C626        C  0.10428879  0.55554099  0.69013991     0.84500
C627        C  0.09915893  0.97266005  0.67797260     1.06100
H628        H  0.16110882  0.58765281  0.64475191     0.37900
O629        O  0.17255011  0.57514975  0.64425154    -1.10400
O630        O  0.22631089  0.56975907  0.67695961    -0.67000
Ni631      Ni  0.19361302  0.58039016  0.69288042     1.26300
O632        O  0.11114392  0.54525634  0.66042860    -0.67300
O633        O  0.22063223  0.62496506  0.68477428    -0.79600
C634        C  0.19514678  0.57340755  0.77171075     0.83900
O635        O  0.21253539  0.58221406  0.74327617    -0.66700
Ni636      Ni  0.19577122  0.58887669  0.59998286     1.27400
Ni637      Ni  0.14332811  0.53134261  0.64965512     1.26100
H638        H  0.17345771  0.52307961  0.70181413     0.38400
O639        O  0.25177173  0.49774478  0.10261193    -0.81500
O640        O  0.25218704  0.54150786  0.93413794    -0.66200
O641        O  0.22960518  0.51071246  0.03465095    -1.12800
C642        C  0.23963514  0.92263582  0.98534829     1.05400
O643        O  0.21100624  0.99360972  0.91038538    -0.79400
O644        O  0.18554559  0.93369550  0.94826987    -0.67000
Ni645      Ni  0.25423078  0.53582586  0.07719573     1.34900
C646        C  0.17175452  0.92662358  0.97952749     0.84100
O647        O  0.24095122  0.56716021  0.99455265    -0.80000
O648        O  0.25727651  0.57543543  0.05577700    -0.90200
C649        C  0.23029994  0.52585333  0.90975097     0.83700
O650        O  0.29629912  0.54810049  0.05976385    -0.68400
O651        O  0.24191172  0.93600119  0.95276189    -0.87700
C652        C  0.30728788  0.55960155  0.02741879     0.84500
C653        C  0.25180060  0.58522119  0.02354336     1.06100
H654        H  0.26605103  0.99544080  0.97801635     0.37900
O655        O  0.24380137  0.98960247  0.97719491    -1.10400
O656        O  0.18365912  0.94527892  0.00836205    -0.67000
Ni657      Ni  0.22845095  0.97068375  0.02486381     1.26300
O658        O  0.28909220  0.55241213  0.99754498    -0.67300
O659        O  0.23313133  0.93272149  0.01549562    -0.79600
C660        C  0.22580706  0.97338533  0.10350202     0.83900
O661        O  0.21346091  0.95548307  0.07471249    -0.66700
Ni662      Ni  0.22667788  0.96501034  0.93284890     1.27400
Ni663      Ni  0.24336940  0.52822125  0.98576921     1.26100
H664        H  0.20808969  0.50704406  0.03677863     0.38400
O665        O  0.10498282  0.92275981  0.42698671    -0.81500
O666        O  0.14618102  0.92035421  0.26131465    -0.66200
O667        O  0.13557004  0.94380198  0.36049124    -1.12800
C668        C  0.03597256  0.92499727  0.30197798     1.05400
O669        O  0.13359505  0.95771131  0.23877190    -0.79400
O670        O  0.09625362  0.98189035  0.27144224    -0.67000
Ni671      Ni  0.13865950  0.91950177  0.40336654     1.34900
C672        C  0.10281404  0.99617895  0.30309225     0.84100
O673        O  0.18229161  0.93463001  0.32523723    -0.80000
O674        O  0.17320807  0.91450515  0.38398304    -0.90200
C675        C  0.14858021  0.94113473  0.23601938     0.83700
O676        O  0.10899676  0.87857390  0.38338117    -0.68400
O677        O  0.04789712  0.92378376  0.27070970    -0.87700
C678        C  0.10972006  0.86629886  0.35201981     0.84500
C679        C  0.18939693  0.92228697  0.35436721     1.06100
H680        H  0.08496542  0.90135077  0.30174322     0.37900
O681        O  0.09916800  0.92413689  0.30204891    -1.10400
O682        O  0.11068439  0.98462349  0.33238977    -0.67000
Ni683      Ni  0.09406533  0.94016856  0.34865051     1.26300
O684        O  0.12366921  0.88387519  0.32380115    -0.67300
O685        O  0.05166751  0.93333339  0.33393929    -0.79600
C686        C  0.10207233  0.94835211  0.42754988     0.83900
O687        O  0.09276647  0.95753066  0.39742534    -0.66700
Ni688      Ni  0.09068286  0.94049071  0.25593094     1.27400
Ni689      Ni  0.14093124  0.92982373  0.31226554     1.26100
H690        H  0.15067788  0.96612381  0.36404295     0.38400
O691        O  0.37762760  0.83608517  0.56208713    -0.81500
O692        O  0.35628037  0.78694640  0.73227299    -0.66200
O693        O  0.36967134  0.83174818  0.63868862    -1.12800
C694        C  0.47580065  0.87433797  0.67829908     1.05400
O695        O  0.38806108  0.83036701  0.76492806    -0.79400
O696        O  0.41357176  0.88371158  0.72223411    -0.67000
Ni697      Ni  0.34900786  0.80510878  0.59567624     1.34900
C698        C  0.41621299  0.89835913  0.69097469     0.84100
O699        O  0.31810663  0.79220397  0.67946728    -0.80000
O700        O  0.31576692  0.77183724  0.62309173    -0.90200
C701        C  0.36410476  0.80286530  0.76248953     0.83700
O702        O  0.37576350  0.78500953  0.60399011    -0.68400
O703        O  0.46501774  0.87355468  0.71090422    -0.87700
C704        C  0.37621795  0.76975768  0.63420478     0.84500
C705        C  0.30338923  0.77172006  0.65412469     1.06100
H706        H  0.41303456  0.80916473  0.69110998     0.37900
O707        O  0.40654753  0.82595162  0.69092261    -1.10400
O708        O  0.41975601  0.88734651  0.66020907    -0.67000
Ni709      Ni  0.41458703  0.84680931  0.64284975     1.26300
O710        O  0.36245609  0.77129431  0.66357066    -0.67300
O711        O  0.45851587  0.86089007  0.64920152    -0.79600
C712        C  0.40454335  0.86037825  0.56477162     0.83900
O713        O  0.42214190  0.86767229  0.59457368    -0.66700
Ni714      Ni  0.42542126  0.85091522  0.73527684     1.27400
Ni715      Ni  0.36238363  0.80885134  0.68541747     1.26100
H716        H  0.36402518  0.84908294  0.63990903     0.38400
O717        O  0.30489339  0.78464321  0.09499486    -0.81500
O718        O  0.30242243  0.75601510  0.92055870    -0.66200
O719        O  0.29933617  0.78716052  0.01730937    -1.12800
C720        C  0.19235554  0.71833430  0.00233810     1.05400
O721        O  0.26235367  0.76247318  0.89564107    -0.79400
O722        O  0.24154868  0.78931376  0.94638391    -0.67000
Ni723      Ni  0.32941327  0.78515415  0.05388044     1.34900
C724        C  0.24270094  0.80136422  0.97842591     0.84100
O725        O  0.34371001  0.80231477  0.96366047    -0.80000
O726        O  0.35937900  0.78821433  0.01758690    -0.90200
C727        C  0.28792582  0.76062781  0.89229902     0.83700
O728        O  0.30747085  0.73933134  0.05068205    -0.68400
O729        O  0.19695606  0.72872421  0.96827712    -0.87700
C730        C  0.30330847  0.72372176  0.02026400     0.84500
C731        C  0.36462433  0.79989281  0.98432338     1.06100
H732        H  0.25529889  0.72067552  0.97361197     0.37900
O733        O  0.25864412  0.74265466  0.97333547    -1.10400
O734        O  0.24287061  0.78706804  0.00931587    -0.67000
Ni735      Ni  0.25645722  0.75537665  0.02356911     1.26300
O736        O  0.31108101  0.73821436  0.98850151    -0.67300
O737        O  0.21421426  0.72366078  0.02720627    -0.79600
C738        C  0.27669872  0.77911601  0.09973733     0.83900
O739        O  0.25491940  0.76814626  0.07410987    -0.66700
Ni740      Ni  0.23122436  0.74603898  0.93446141     1.27400
Ni741      Ni  0.30126801  0.77189074  0.96855624     1.26100
H742        H  0.30155216  0.80875945  0.01563355     0.38400
O743        O  0.34525603  0.87471934  0.43674222    -0.81500
O744        O  0.28875872  0.83690441  0.26837688    -0.66200
O745        O  0.33569702  0.85368211  0.36212485    -1.12800
C746        C  0.38050261  0.95982049  0.31149867     1.05400
O747        O  0.33287135  0.86183921  0.23747827    -0.79400
O748        O  0.39109238  0.90262945  0.27033532    -0.67000
Ni749      Ni  0.31172290  0.84232646  0.40664326     1.34900
C750        C  0.40438800  0.89852165  0.30061260     0.84100
O751        O  0.28936338  0.80021602  0.32622009    -0.80000
O752        O  0.27591076  0.80670623  0.38336487    -0.90200
C753        C  0.30372549  0.84169453  0.23846793     0.83700
O754        O  0.29487550  0.87133628  0.39299295    -0.68400
O755        O  0.37012166  0.94709405  0.27897565    -0.87700
C756        C  0.27784319  0.86905038  0.36333057     0.84500
C757        C  0.27123829  0.79016386  0.35358106     1.06100
H758        H  0.31895704  0.89895585  0.30923772     0.37900
O759        O  0.33299665  0.88940740  0.30729178    -1.10400
O760        O  0.39178295  0.89353923  0.33238391    -0.67000
Ni761      Ni  0.35812002  0.89890770  0.35262657     1.26300
O762        O  0.27737088  0.85228838  0.33510321    -0.67300
O763        O  0.37877984  0.94372016  0.34171277    -0.79600
C764        C  0.37359073  0.89494156  0.43075582     0.83900
O765        O  0.38298659  0.90681929  0.39850067    -0.66700
Ni766      Ni  0.35175530  0.90411664  0.26006043     1.27400
Ni767      Ni  0.31104377  0.84473962  0.31588826     1.26100
H768        H  0.34946798  0.84362458  0.36239879     0.38400
O769        O  0.42553258  0.59449377  0.56230541    -0.81500
O770        O  0.43551394  0.64473855  0.72775454    -0.66200
O771        O  0.45157347  0.62938709  0.62704004    -1.12800
C772        C  0.43389032  0.52954079  0.68456841     1.05400
O773        O  0.47227331  0.63078528  0.74702468    -0.79400
O774        O  0.49200752  0.59034498  0.71401176    -0.67000
Ni775      Ni  0.42608413  0.63164001  0.58480846     1.34900
C776        C  0.00531859  0.59732213  0.68555852     0.84100
O777        O  0.44622161  0.67884384  0.66303540    -0.80000
O778        O  0.42529152  0.66948554  0.60352461    -0.90200
C779        C  0.45645338  0.64601081  0.75248670     0.83700
O780        O  0.38590309  0.60509999  0.60609722    -0.68400
O781        O  0.43384400  0.54266074  0.71587846    -0.87700
C782        C  0.37589638  0.60681202  0.63827407     0.84500
C783        C  0.43419198  0.68616039  0.63374039     1.06100
H784        H  0.41259994  0.58053270  0.68636041     0.37900
O785        O  0.43501358  0.59453931  0.68564377    -1.10400
O786        O  0.49284806  0.60395003  0.65331930    -0.67000
Ni787      Ni  0.44813718  0.58739181  0.63868747     1.26300
O788        O  0.39510815  0.62022780  0.66649340    -0.67300
O789        O  0.44186091  0.54494460  0.65310474    -0.79600
C790        C  0.45033355  0.59113968  0.55994776     0.83900
O791        O  0.46160020  0.58346136  0.58949395    -0.66700
Ni792      Ni  0.45279386  0.58660286  0.73070384     1.27400
Ni793      Ni  0.44098938  0.63699793  0.67590762     1.26100
H794        H  0.47334430  0.64433515  0.62286747     0.38400
O795        O  0.01710765  0.73723481  0.90401804    -0.81500
O796        O  0.04068112  0.74189053  0.07796795    -0.66200
O797        O  0.01623720  0.71303059  0.97656074    -1.12800
C798        C  0.44569129  0.75374000  0.99213300     1.05400
O799        O  0.49154269  0.71546710  0.09423150    -0.79400
O800        O  0.43835124  0.69337939  0.04647624    -0.67000
Ni801      Ni  0.04622518  0.73026921  0.93810215     1.34900
C802        C  0.43337961  0.67330051  0.02023247     0.84100
O803        O  0.06072834  0.71382054  0.02928891    -0.80000
O804        O  0.07605440  0.72193267  0.96901501    -0.90200
C805        C  0.02086359  0.72466116  0.10186114     0.83700
O806        O  0.06613935  0.77545154  0.95193380    -0.68400
O807        O  0.45267638  0.75544909  0.02776787    -0.87700
C808        C  0.07387133  0.78929823  0.98408224     0.84500
C809        C  0.07788749  0.71334521  0.00334295     1.06100
H810        H  0.00933358  0.76581913  0.01752444     0.37900
O811        O  0.49928770  0.74272494  0.02033711    -1.10400
O812        O  0.45198688  0.68056149  0.99250026    -0.67000
Ni813      Ni  0.48288555  0.72274610  0.97257701     1.26300
O814        O  0.06315537  0.77311962  0.01437950    -0.67300
O815        O  0.45120807  0.73671219  0.96888286    -0.79600
C816        C  0.49012229  0.71346431  0.89690702     0.83900
O817        O  0.47034904  0.70370090  0.92304094    -0.66700
Ni818      Ni  0.47185557  0.73514961  0.06002230     1.27400
Ni819      Ni  0.03056039  0.72921517  0.02641799     1.26100
H820        H  0.00788363  0.68989643  0.97693895     0.38400
O821        O  0.06590218  0.65582045  0.23656228    -0.81500
O822        O  0.02863892  0.61444297  0.40303752    -0.66200
O823        O  0.03794148  0.65059335  0.30358183    -1.12800
C824        C  0.14107804  0.71187451  0.35493358     1.05400
O825        O  0.04566232  0.66356529  0.42524041    -0.79400
O826        O  0.08401773  0.72152430  0.38978758    -0.67000
Ni827      Ni  0.02968904  0.62402092  0.26032936     1.34900
C828        C  0.07598666  0.73019612  0.35852661     0.84100
O829        O  0.48970912  0.60273272  0.34174273    -0.80000
O830        O  0.49159523  0.59103146  0.28122536    -0.90200
C831        C  0.02895252  0.63314463  0.42870644     0.83700
O832        O  0.05505200  0.60411975  0.27772912    -0.68400
O833        O  0.12953092  0.70279060  0.38755860    -0.87700
C834        C  0.05766630  0.59240390  0.30968564     0.84500
C835        C  0.47725416  0.58648086  0.31198197     1.06100
H836        H  0.08838562  0.64822053  0.35979768     0.37900
O837        O  0.07595980  0.65973707  0.35991267    -1.10400
O838        O  0.06844334  0.71281452  0.32914833    -0.67000
Ni839      Ni  0.08093705  0.68155041  0.31277786     1.26300
O840        O  0.04625805  0.59764452  0.33927440    -0.67300
O841        O  0.12448191  0.70971186  0.32446561    -0.79600
C842        C  0.07120707  0.68488834  0.23483676     0.83900
O843        O  0.08268133  0.70206170  0.26418781    -0.66700
Ni844      Ni  0.08768231  0.68355636  0.40528010     1.27400
Ni845      Ni  0.03315136  0.63042083  0.35200984     1.26100
H846        H  0.02464041  0.66118225  0.30140123     0.38400
C847        C  0.06042862  0.73747334  0.15610687    -0.26900
C848        C  0.03264767  0.71499205  0.13719025    -0.15000
C849        C  0.01825387  0.68286147  0.15025106     0.35600
C850        C  0.03212158  0.67392781  0.18133458    -0.26400
C851        C  0.05958345  0.69641947  0.20075612    -0.15600
C852        C  0.07359514  0.72874754  0.18805168     0.36700
N853        N  0.10151948  0.75303811  0.20628224    -0.89900
H854        H  0.07192433  0.76212996  0.14607212     0.17800
H855        H  0.02084760  0.64916694  0.19102743     0.17800
N856        N  0.99030202  0.65905527  0.13109053    -0.88900
H857        H  0.11903892  0.74545365  0.20704051     0.35200
H858        H  0.09647717  0.75568471  0.23397325     0.40300
H859        H  0.97176719  0.66427998  0.13638980     0.39900
H860        H  0.98404324  0.63620380  0.14259214     0.34800
C861        C  0.49575618  0.68099392  0.80105335    -0.26900
C862        C  0.46419394  0.66601520  0.78737713    -0.15000
C863        C  0.44107114  0.66796474  0.80933371     0.35600
C864        C  0.44989054  0.68397563  0.84445559    -0.26400
C865        C  0.48151073  0.69850718  0.85838792    -0.15600
C866        C  0.00322360  0.69586724  0.83812176     0.36700
N867        N  0.03490180  0.70677010  0.85359191    -0.89900
H868        H  0.01205705  0.67660195  0.78815183     0.17800
H869        H  0.43179509  0.68469846  0.86119056     0.17800
N870        N  0.40835008  0.65277750  0.79757623    -0.88900
H871        H  0.04873132  0.70232005  0.83485427     0.35200
H872        H  0.03371170  0.69305690  0.87785666     0.40300
H873        H  0.40115390  0.62828892  0.79351776     0.39900
H874        H  0.40572369  0.66293745  0.77182291     0.34800
C875        C  0.99069186  0.63594716  0.47180661    -0.26900
C876        C  0.00801437  0.62014654  0.46142412    -0.15000
C877        C  0.00568237  0.59334359  0.48326715     0.35600
C878        C  0.48609527  0.58419028  0.51508807    -0.26400
C879        C  0.46773143  0.59937435  0.52409367    -0.15600
C880        C  0.46893455  0.62499637  0.50073540     0.36700
N881        N  0.45158419  0.64208360  0.50976497    -0.89900
H882        H  0.99224205  0.65639066  0.45518620     0.17800
H883        H  0.48588569  0.56493930  0.53300509     0.17800
N884        N  0.02251342  0.57592050  0.47409420    -0.88900
H885        H  0.45432753  0.65956449  0.48922711     0.35200
H886        H  0.46161284  0.65449812  0.53498840     0.40300
H887        H  0.04652993  0.59206575  0.47339959     0.39900
H888        H  0.01465137  0.56593225  0.44719802     0.34800
C889        C  0.22783311  0.74384655  0.38193707    -0.26900
C890        C  0.24106645  0.76129377  0.34924218    -0.15000
C891        C  0.22201141  0.75679272  0.31610607     0.35600
C892        C  0.18933765  0.73918135  0.31802396    -0.26400
C893        C  0.17557305  0.72551808  0.35239591    -0.15600
C894        C  0.19520651  0.72535048  0.38375318     0.36700
N895        N  0.18215818  0.70746035  0.41765735    -0.89900
H896        H  0.24284691  0.74656072  0.40699960     0.17800
H897        H  0.17479178  0.73785130  0.29296658     0.17800
N898        N  0.23538969  0.77223555  0.28133579    -0.88900
H899        H  0.19998578  0.71085748  0.43810159     0.35200
H900        H  0.17144357  0.68304287  0.41068025     0.40300
H901        H  0.22538549  0.78730278  0.27301101     0.39900
H902        H  0.22903784  0.75447589  0.26071002     0.34800
C903        C  0.40238003  0.51380808  0.28401133    -0.26900
C904        C  0.39736415  0.99522929  0.31347204    -0.15000
C905        C  0.41172742  0.01146712  0.34765260     0.35600
C906        C  0.43760509  0.54328263  0.34952436    -0.26400
C907        C  0.44594042  0.55896260  0.31444689    -0.15600
C908        C  0.42613469  0.54523965  0.28206315     0.36700
N909        N  0.42994363  0.56208552  0.24673071    -0.89900
H910        H  0.39036892  0.00151796  0.25338249     0.17800
H911        H  0.95214693  0.55431789  0.37511479     0.17800
N912        N  0.40317160  0.99548534  0.38365866    -0.88900
H913        H  0.45072768  0.56526342  0.23471879     0.35200
H914        H  0.43101250  0.58451727  0.25171621     0.40300
H915        H  0.37969948  0.99020390  0.38755454     0.39900
H916        H  0.41658344  0.01079077  0.40575046     0.34800
C917        C  0.27002140  0.81757526  0.13905455    -0.26900
C918        C  0.27068251  0.78799868  0.13674558    -0.15000
C919        C  0.27624229  0.77360236  0.16999008     0.35600
C920        C  0.28474881  0.79090710  0.20385129    -0.26400
C921        C  0.28778633  0.82210971  0.20504536    -0.15600
C922        C  0.27873141  0.83500214  0.17289215     0.36700
N923        N  0.27923866  0.86599768  0.17313038    -0.89900
H924        H  0.26577127  0.82867308  0.11358258     0.17800
H925        H  0.29103398  0.78074877  0.22878122     0.17800
N926        N  0.27562055  0.74255583  0.16971320    -0.88900
H927        H  0.29682243  0.88120523  0.15522376     0.35200
H928        H  0.28510217  0.87632385  0.20000556     0.40300
H929        H  0.26812614  0.73177965  0.14316405     0.39900
H930        H  0.25851813  0.72771172  0.18836773     0.34800
C931        C  0.38793113  0.77758193  0.94375408    -0.26900
C932        C  0.39295883  0.80322443  0.96738085    -0.15000
C933        C  0.42151732  0.81886813  0.98860136     0.35600
C934        C  0.44035245  0.80342365  0.99377697    -0.26400
C935        C  0.43101090  0.77325143  0.97733621    -0.15600
C936        C  0.40628506  0.76153948  0.94960994     0.36700
N937        N  0.39756490  0.73172074  0.93072927    -0.96200
H938        H  0.36631986  0.76616660  0.92643720     0.17800
H939        H  0.46075571  0.81362652  0.01324385     0.17800
N940        N  0.42948281  0.84782787  0.00922120    -0.88900
H941        H  0.39808350  0.73607025  0.90157274     0.35200
H942        H  0.37434238  0.71581559  0.93718277     0.40300
H943        H  0.41303011  0.85635752  0.00257128     0.39900
H944        H  0.45104268  0.86537375  0.99962549     0.34800
C945        C  0.15266261  0.71679533  0.04414769    -0.26900
C946        C  0.15986946  0.70300987  0.01377157    -0.15000
C947        C  0.13603978  0.68388525  0.98745188     0.35600
C948        C  0.10701566  0.68416846  0.98729626    -0.26400
C949        C  0.10200246  0.70330314  0.01320879    -0.15600
C950        C  0.12356400  0.71732006  0.04401596     0.36700
N951        N  0.11751987  0.73528272  0.07210910    -0.89900
H952        H  0.17108913  0.73104612  0.06477149     0.17800
H953        H  0.08969012  0.67219415  0.96460312     0.17800
N954        N  0.14254778  0.66715744  0.95848045    -0.88900
H955        H  0.13679324  0.74579643  0.09136143     0.35200
H956        H  0.09866388  0.71891055  0.08764451     0.40300
H957        H  0.13878508  0.67586996  0.93219495     0.39900
H958        H  0.12631642  0.64281316  0.96018575     0.34800
C959        C  0.33972901  0.76285561  0.81358234    -0.26900
C960        C  0.34306620  0.79068784  0.79426066    -0.15000
C961        C  0.32505407  0.80607889  0.80419055     0.35600
C962        C  0.30507317  0.79418590  0.83472273    -0.26400
C963        C  0.30335950  0.76767636  0.85580358    -0.15600
C964        C  0.32021515  0.75140318  0.84457156     0.36700
N965        N  0.31747128  0.72324694  0.86455787    -0.89900
H966        H  0.35281688  0.75043791  0.80512750     0.17800
H967        H  0.29212593  0.80669979  0.84334417     0.17800
N968        N  0.32689107  0.83348958  0.78293209    -0.88900
H969        H  0.34003209  0.72734675  0.87433268     0.35200
H970        H  0.30904257  0.70421909  0.84532912     0.40300
H971        H  0.34954787  0.85238015  0.78767605     0.39900
H972        H  0.31123676  0.84120209  0.79300056     0.34800
C973        C  0.42263732  0.97858769  0.72050262    -0.26900
C974        C  0.42609359  0.99447450  0.68542470    -0.15000
C975        C  0.42304617  0.97729466  0.65186469     0.35600
C976        C  0.41828959  0.94542609  0.65452889    -0.26400
C977        C  0.41673779  0.93027001  0.68982977    -0.15600
C978        C  0.41826472  0.94698742  0.72306296     0.36700
N979        N  0.41656418  0.93259696  0.75969352    -0.89900
H980        H  0.42458697  0.99108078  0.74662148     0.17800
H981        H  0.41664222  0.93269491  0.62870433     0.17800
N982        N  0.42537307  0.99220674  0.61527908    -0.88900
H983        H  0.39767068  0.93272615  0.77335119     0.35200
H984        H  0.43734325  0.94686447  0.77532867     0.40300
H985        H  0.40526597  0.49486510  0.61115565     0.39900
H986        H  0.42374018  0.97652967  0.59375967     0.34800
C987        C  0.40789365  0.71157269  0.66712050    -0.26900
C988        C  0.42557899  0.71233769  0.63637310    -0.15000
C989        C  0.42840954  0.73305507  0.60560706     0.35600
C990        C  0.41235026  0.75184051  0.60562518    -0.26400
C991        C  0.39310588  0.74982580  0.63555163    -0.15600
C992        C  0.39128365  0.72961853  0.66683149     0.36700
N993        N  0.37172218  0.72625250  0.69782982    -0.89900
H994        H  0.40504008  0.69505229  0.69043488     0.17800
H995        H  0.41454188  0.76771944  0.58186942     0.17800
N996        N  0.44701684  0.73435615  0.57423348    -0.88900
H997        H  0.38593587  0.73257117  0.72270572     0.35200
H998        H  0.35514437  0.70204735  0.69995388     0.40300
H999        H  0.47044000  0.74322392  0.58437470     0.39900
H1000       H  0.44657850  0.75071712  0.55378081     0.34800
C1001       C  0.40285245  0.90537906  0.53083374    -0.26900
C1002       C  0.41346573  0.88187856  0.53188843    -0.15000
C1003       C  0.42037757  0.87185503  0.49781549     0.35600
C1004       C  0.41243354  0.88230064  0.46339435    -0.26400
C1005       C  0.39643204  0.90112817  0.46255173    -0.15600
C1006       C  0.39347010  0.91456110  0.49644818     0.36700
N1007       N  0.37867796  0.93528776  0.49711905    -0.89900
H1008       H  0.39757862  0.91317547  0.55698505     0.17800
H1009       H  0.41459072  0.87178335  0.43742742     0.17800
N1010       N  0.43203501  0.84843839  0.49713386    -0.88900
H1011       H  0.35724530  0.92277568  0.51040367     0.35200
H1012       H  0.37350492  0.94087755  0.46971158     0.40300
H1013       H  0.43735298  0.84297331  0.52452997     0.39900
H1014       H  0.45343642  0.85903868  0.48349640     0.34800
C1015       C  0.23056523  0.91276347  0.38937982    -0.26900
C1016       C  0.21611254  0.91421058  0.35432406    -0.15000
C1017       C  0.22380017  0.90259378  0.32184883     0.35600
C1018       C  0.24452603  0.88889720  0.32555167    -0.26400
C1019       C  0.25773764  0.88591893  0.36106597    -0.15600
C1020       C  0.25086075  0.89871901  0.39325522     0.36700
N1021       N  0.26286890  0.89679297  0.43063717    -0.89900
H1022       H  0.22496909  0.92146015  0.41462224     0.17800
H1023       H  0.24964542  0.87973910  0.30034988     0.17800
N1024       N  0.20975935  0.90268733  0.28512931    -0.88900
H1025       H  0.28747308  0.90972908  0.43145052     0.35200
H1026       H  0.25595402  0.87265587  0.43743701     0.40300
H1027       H  0.21561319  0.92643563  0.27745985     0.39900
H1028       H  0.18524965  0.88950915  0.28642413     0.34800
C1029       C  0.48320334  0.90057189  0.33141439    -0.26900
C1030       C  0.00204244  0.91642816  0.30036784    -0.15000
C1031       C  0.48926360  0.93026256  0.27250557     0.35600
C1032       C  0.45673965  0.92115703  0.27111767    -0.26400
C1033       C  0.43718131  0.90230345  0.29986181    -0.15600
C1034       C  0.45061574  0.89138847  0.33004972     0.36700
N1035       N  0.43122159  0.87108022  0.35930907    -0.89900
H1036       H  0.49340336  0.89222350  0.35450058     0.17800
H1037       H  0.44694477  0.93016569  0.24827974     0.17800
N1038       N  0.00851577  0.94862991  0.24188816    -0.88900
H1039       H  0.44476038  0.86549697  0.37947396     0.35200
H1040       H  0.41516658  0.84936077  0.34676250     0.40300
H1041       H  0.02414916  0.97014217  0.25522182     0.39900
H1042       H  0.49548447  0.95648023  0.22327354     0.34800
C1043       C  0.08620966  0.56668083  0.27732873    -0.26900
C1044       C  0.07407852  0.57128331  0.31101084    -0.15000
C1045       C  0.07713840  0.55482701  0.34394952     0.35600
C1046       C  0.08930521  0.53238317  0.34143814    -0.26400
C1047       C  0.09874154  0.52582125  0.30687885    -0.15600
C1048       C  0.09806294  0.54432707  0.27478451     0.36700
N1049       N  0.11324094  0.04467560  0.24096480    -0.89900
H1050       H  0.08545857  0.57973005  0.25185845     0.17800
H1051       H  0.08972464  0.51859591  0.36634855     0.17800
N1052       N  0.06706732  0.56004527  0.37961517    -0.88900
H1053       H  0.13563623  0.04647635  0.24727777     0.35200
H1054       H  0.09908476  0.02285521  0.22742538     0.40300
H1055       H  0.08210172  0.58375684  0.38767323     0.39900
H1056       H  0.06993688  0.54535071  0.40064142     0.34800
C1057       C  0.07979724  0.81151097  0.38116163    -0.26900
C1058       C  0.09558389  0.83023057  0.34976437    -0.15000
C1059       C  0.10048475  0.81428780  0.31911735     0.35600
C1060       C  0.09192181  0.78116176  0.32208885    -0.26400
C1061       C  0.07858262  0.76323125  0.35480564    -0.15600
C1062       C  0.07158290  0.77861620  0.38413051     0.36700
N1063       N  0.05616233  0.76158134  0.41730081    -0.89900
H1064       H  0.07495257  0.82276869  0.40464718     0.17800
H1065       H  0.09733382  0.76962767  0.29940224     0.17800
N1066       N  0.11537179  0.83182134  0.28575499    -0.88900
H1067       H  0.07077125  0.75372817  0.43230842     0.35200
H1068       H  0.03520400  0.74156786  0.40885703     0.40300
H1069       H  0.09989154  0.83927809  0.27205446     0.39900
H1070       H  0.11849983  0.81684281  0.26677251     0.34800
C1071       C  0.19116055  0.98037317  0.19624829    -0.26900
C1072       C  0.17063660  0.94817715  0.20452043    -0.15000
C1073       C  0.17056678  0.92385299  0.18150239     0.35600
C1074       C  0.18949053  0.93249776  0.14938794    -0.26400
C1075       C  0.20953093  0.96492477  0.14049064    -0.15600
C1076       C  0.21073539  0.98896843  0.16525791     0.36700
N1077       N  0.23043999  0.02255588  0.15890153    -0.89900
H1078       H  0.19174699  0.99925589  0.21392108     0.17800
H1079       H  0.18822787  0.91380665  0.13087265     0.17800
N1080       N  0.15011925  0.89060159  0.18955793    -0.88900
H1081       H  0.22452856  0.02884678  0.13222312     0.35200
H1082       H  0.25399403  0.02690210  0.15992575     0.40300
H1083       H  0.15830483  0.88481768  0.21511907     0.39900
H1084       H  0.15181711  0.87583415  0.16903575     0.34800
C1085       C  0.13702307  0.87557418  0.01636781    -0.26900
C1086       C  0.14254382  0.89365606  0.98239415    -0.15000
C1087       C  0.12311509  0.87719932  0.95017239     0.35600
C1088       C  0.10077782  0.84427122  0.95221104    -0.26400
C1089       C  0.09641962  0.82565007  0.98551268    -0.15600
C1090       C  0.11477495  0.84235023  0.01827098     0.36700
N1091       N  0.11250685  0.82609763  0.05371538    -0.89900
H1092       H  0.15142767  0.88686841  0.04149893     0.17800
H1093       H  0.08697168  0.83293750  0.92674219     0.17800
N1094       N  0.12514598  0.89317456  0.91455131    -0.88900
H1095       H  0.11764487  0.80692583  0.04979801     0.35200
H1096       H  0.08942359  0.81714005  0.06262711     0.40300
H1097       H  0.14686395  0.89900068  0.90307405     0.39900
H1098       H  0.12315498  0.91418836  0.91895546     0.34800
C1099       C  0.38769063  0.62360261  0.98938166    -0.26900
C1100       C  0.40371083  0.64085787  0.02236202    -0.15000
C1101       C  0.38895621  0.62847562  0.05718976     0.35600
C1102       C  0.35897732  0.60098813  0.05818418    -0.26400
C1103       C  0.34199091  0.58479671  0.02508801    -0.15600
C1104       C  0.35732188  0.59627642  0.99036446     0.36700
N1105       N  0.34198387  0.58067472  0.95562788    -0.89900
H1106       H  0.39806858  0.63222391  0.96223686     0.17800
H1107       H  0.34831045  0.59322851  0.08532999     0.17800
N1108       N  0.40410662  0.64403001  0.09207203    -0.88900
H1109       H  0.35665753  0.57296202  0.94289035     0.35200
H1110       H  0.33962870  0.59767428  0.93773917     0.40300
H1111       H  0.38905283  0.65105975  0.10514482     0.39900
H1112       H  0.40712335  0.62723391  0.10964639     0.34800
C1113       C  0.25626339  0.63588573  0.04976828    -0.26900
C1114       C  0.26124455  0.61997399  0.01971820    -0.15000
C1115       C  0.27984646  0.63842644  0.98967024     0.35600
C1116       C  0.29334251  0.67198019  0.99071699    -0.26400
C1117       C  0.28893674  0.68802933  0.02114272    -0.15600
C1118       C  0.26939751  0.66962687  0.05056304     0.36700
N1119       N  0.26268805  0.68508300  0.08097773    -0.89900
H1120       H  0.24223108  0.62185580  0.07295122     0.17800
H1121       H  0.30792048  0.68562391  0.96770923     0.17800
N1122       N  0.28684041  0.62399226  0.95862731    -0.88900
H1123       H  0.24848447  0.66811294  0.10055224     0.35200
H1124       H  0.24945032  0.69611638  0.06942807     0.40300
H1125       H  0.26572997  0.60889824  0.94416829     0.39900
H1126       H  0.29779245  0.61039157  0.96927999     0.34800
C1127       C  0.26078405  0.88807938  0.95937132    -0.26900
C1128       C  0.24324823  0.89293644  0.98703249    -0.15000
C1129       C  0.22649490  0.86781413  0.01255875     0.35600
C1130       C  0.22699355  0.83828926  0.00933857    -0.26400
C1131       C  0.24332609  0.83302704  0.98055528    -0.15600
C1132       C  0.26085224  0.85849530  0.95568658     0.36700
N1133       N  0.27938878  0.85534550  0.92691843    -0.89900
H1134       H  0.27401352  0.90723239  0.93975355     0.17800
H1135       H  0.21368434  0.81901906  0.02880242     0.17800
N1136       N  0.20779475  0.87153384  0.04066880    -0.88900
H1137       H  0.26442218  0.83816520  0.90732764     0.35200
H1138       H  0.29509630  0.84768679  0.93954962     0.40300
H1139       H  0.21599019  0.86749100  0.06721606     0.39900
H1140       H  0.18452636  0.85373190  0.03628559     0.34800
C1141       C  0.18318033  0.54838192  0.83588174    -0.26900
C1142       C  0.20622266  0.56696173  0.81000029    -0.15000
C1143       C  0.23823905  0.57609807  0.82032633     0.35600
C1144       C  0.24593945  0.56374859  0.85411885    -0.26400
C1145       C  0.22234733  0.54295111  0.87814397    -0.15600
C1146       C  0.19077869  0.53696547  0.86990163     0.36700
N1147       N  0.16567890  0.51935945  0.89518831    -0.89900
H1148       H  0.15855899  0.54185621  0.82940011     0.17800
H1149       H  0.27029871  0.56935061  0.86095633     0.17800
N1150       N  0.26272177  0.59733898  0.79634269    -0.88900
H1151       H  0.15560120  0.53426632  0.90161211     0.35200
H1152       H  0.17419213  0.51478493  0.92115306     0.40300
H1153       H  0.28489049  0.60154158  0.80780903     0.39900
H1154       H  0.26229929  0.61951412  0.79586980     0.34800
C1155       C  0.28640733  0.57333798  0.61479968    -0.26900
C1156       C  0.27505622  0.57896683  0.64830097    -0.15000
C1157       C  0.29684747  0.59121713  0.67975666     0.35600
C1158       C  0.32887312  0.59849354  0.67647636    -0.26400
C1159       C  0.34056999  0.59417896  0.64231339    -0.15600
C1160       C  0.31839112  0.58045086  0.61140169     0.36700
N1161       N  0.32835291  0.57457271  0.57598521    -0.89900
H1162       H  0.27022730  0.56399467  0.59045974     0.17800
H1163       H  0.34499870  0.60888438  0.70064489     0.17800
N1164       N  0.28769561  0.59822435  0.71489257    -0.88900
H1165       H  0.30965010  0.56597039  0.55576568     0.35200
H1166       H  0.33482923  0.55616627  0.58055834     0.40300
H1167       H  0.27001187  0.57688652  0.72560156     0.39900
H1168       H  0.27868864  0.61465149  0.70985652     0.34800
C1169       C  0.05196000  0.59430345  0.71767241    -0.26900
C1170       C  0.03495780  0.59332185  0.68372297    -0.15000
C1171       C  0.04350712  0.58316248  0.65061359     0.35600
C1172       C  0.06697142  0.57231273  0.65293155    -0.26400
C1173       C  0.08238568  0.57114784  0.68757770    -0.15600
C1174       C  0.07555339  0.58393501  0.72002214     0.36700
N1175       N  0.09208244  0.58592819  0.75575298    -0.89900
H1176       H  0.04617100  0.60249290  0.74314941     0.17800
H1177       H  0.07222660  0.56340192  0.62765697     0.17800
N1178       N  0.52605451  0.57944473  0.61221434    -0.88900
H1179       H  0.08341042  0.59457698  0.77690218     0.35200
H1180       H  0.11559295  0.60298008  0.75274119     0.40300
H1181       H  0.50291811  0.56140560  0.61490957     0.39900
H1182       H  0.53549676  0.57201258  0.59069923     0.34800
C1183       C  0.05256857  0.93483597  0.64078009    -0.26900
C1184       C  0.07177937  0.94100745  0.67385082    -0.15000
C1185       C  0.06145246  0.91986313  0.70497602     0.35600
C1186       C  0.03045648  0.89525667  0.70420530    -0.26400
C1187       C  0.50989741  0.89380123  0.67429491    -0.15600
C1188       C  0.02128824  0.91070210  0.64023214     0.36700
N1189       N  0.50265257  0.90654763  0.60724992    -0.89900
H1190       H  0.06072825  0.45132521  0.62707107     0.17800
H1191       H  0.02176718  0.88008832  0.72894442     0.17800
N1192       N  0.08195332  0.92459940  0.73792736    -0.88900
H1193       H  0.01429999  0.40006901  0.59478869     0.35200
H1194       H  0.50172127  0.92800053  0.60039442     0.40300
H1195       H  0.10098142  0.92117519  0.72978481     0.39900
H1196       H  0.07051284  0.90718038  0.75852795     0.34800
C1197       C  0.25390608  0.69166006  0.69305567    -0.26900
C1198       C  0.23670185  0.67720365  0.65960981    -0.15000
C1199       C  0.23354764  0.69676392  0.63026983     0.35600
C1200       C  0.25236738  0.72989018  0.63182833    -0.26400
C1201       C  0.27381442  0.74362534  0.66231408    -0.15600
C1202       C  0.27221782  0.72505742  0.69493696     0.36700
N1203       N  0.29146769  0.73965863  0.72826777    -0.89900
H1204       H  0.25484026  0.67692641  0.71675973     0.17800
H1205       H  0.25265981  0.74445941  0.60734513     0.17800
N1206       N  0.21237971  0.68314966  0.59813317    -0.88900
H1207       H  0.28826722  0.72236001  0.74921804     0.35200
H1208       H  0.28355618  0.75515133  0.73912229     0.40300
H1209       H  0.22555216  0.68984516  0.57378542     0.39900
H1210       H  0.19671433  0.69313989  0.59642398     0.34800
C1211       C  0.09315042  0.97816610  0.48073113    -0.26900
C1212       C  0.11290759  0.96861737  0.46232366    -0.15000
C1213       C  0.14387848  0.97849804  0.47740001     0.35600
C1214       C  0.13770650  0.52464514  0.49981427    -0.26400
C1215       C  0.13330293  0.50923054  0.53531237    -0.15600
C1216       C  0.10366772  0.99680981  0.51429341     0.36700
N1217       N  0.08280166  0.00591657  0.53277830    -0.89900
H1218       H  0.06938850  0.97074119  0.46919457     0.17800
H1219       H  0.14990302  0.55069069  0.49877794     0.17800
N1220       N  0.16495521  0.96990731  0.45876935    -0.88900
H1221       H  0.06069189  0.99636585  0.51855977     0.35200
H1222       H  0.09913503  0.46348518  0.58724126     0.40300
H1223       H  0.17238929  0.95715398  0.47800762     0.39900
H1224       H  0.14477437  0.54851862  0.43392830     0.34800
O1225       O  0.66802736  0.06377832  0.76236294    -0.81500
O1226       O  0.62873317  0.02908636  0.59154925    -0.66200
O1227       O  0.66356333  0.03611323  0.69276176    -1.12800
C1228       C  0.72450054  0.14267151  0.65059952     1.05400
O1229       O  0.67710239  0.04767167  0.57130860    -0.79400
O1230       O  0.73409957  0.08589484  0.61068108    -0.67000
Ni1231     Ni  0.63725097  0.02720537  0.73505440     1.34900
C1232       C  0.74345978  0.07780276  0.64151668     0.84100
O1233       O  0.61529557  0.48779146  0.65463030    -0.80000
O1234       O  0.60577526  0.48859494  0.71615467    -0.90200
C1235       C  0.64727043  0.03031803  0.56608996     0.83700
O1236       O  0.61666419  0.05248160  0.71867634    -0.68400
O1237       O  0.71546582  0.13189903  0.61690585    -0.87700
C1238       C  0.60541917  0.05586899  0.68655009     0.84500
C1239       C  0.60032684  0.47464030  0.68416845     1.06100
H1240       H  0.66210228  0.08891959  0.64042112     0.37900
O1241       O  0.67328534  0.07619310  0.63935698    -1.10400
O1242       O  0.72642077  0.06889498  0.67040924    -0.67000
Ni1243     Ni  0.69443125  0.08000889  0.68730394     1.26300
O1244       O  0.61182265  0.04597127  0.65619959    -0.67300
O1245       O  0.72202674  0.12482822  0.67973294    -0.79600
C1246       C  0.69667858  0.06958985  0.76550490     0.83900
O1247       O  0.71358129  0.08015608  0.73679420    -0.66700
Ni1248     Ni  0.69666172  0.08980778  0.59527249     1.27400
Ni1249     Ni  0.64381564  0.03241337  0.64348806     1.26100
H1250       H  0.67379424  0.02239595  0.69427812     0.38400
O1251       O  0.75136594  0.00083085  0.10041907    -0.81500
O1252       O  0.74934741  0.03952730  0.93025284    -0.66200
O1253       O  0.72772710  0.01079371  0.03151609    -1.12800
C1254       C  0.74311306  0.42315440  0.99019226     1.05400
O1255       O  0.71279941  0.49242117  0.91444868    -0.79400
O1256       O  0.68827496  0.43355777  0.95331705    -0.67000
Ni1257     Ni  0.75201784  0.03736602  0.07318730     1.34900
C1258       C  0.67437250  0.42727048  0.98445757     0.84100
O1259       O  0.73638711  0.06570582  0.98912188    -0.80000
O1260       O  0.75331500  0.07553925  0.05002491    -0.90200
C1261       C  0.72969176  0.02180700  0.90486291     0.83700
O1262       O  0.79408539  0.05007317  0.05565694    -0.68400
O1263       O  0.74492656  0.43598507  0.95735068    -0.87700
C1264       C  0.80490566  0.06133669  0.02321368     0.84500
C1265       C  0.74679516  0.08433950  0.01774087     1.06100
H1266       H  0.76903739  0.49583140  0.98142735     0.37900
O1267       O  0.74674367  0.48977215  0.98086191    -1.10400
O1268       O  0.68688375  0.44575326  0.01330843    -0.67000
Ni1269     Ni  0.73186990  0.47149668  0.02898993     1.26300
O1270       O  0.78653079  0.05388404  0.99351206    -0.67300
O1271       O  0.73683793  0.43359731  0.02023465    -0.79600
C1272       C  0.72884988  0.47520300  0.10775533     0.83900
O1273       O  0.71732377  0.45685172  0.07917312    -0.66700
Ni1274     Ni  0.72922531  0.46451930  0.93710800     1.27400
Ni1275     Ni  0.74098431  0.02751054  0.98216085     1.26100
H1276       H  0.70591412  0.00612149  0.03357533     0.38400
O1277       O  0.60743134  0.42691534  0.43187310    -0.81500
O1278       O  0.64813440  0.42108158  0.26524705    -0.66200
O1279       O  0.63683322  0.44574173  0.36370909    -1.12800
C1280       C  0.53586994  0.42264765  0.30541733     1.05400
O1281       O  0.63284321  0.45601834  0.24098840    -0.79400
O1282       O  0.59421106  0.47907581  0.27271079    -0.67000
Ni1283     Ni  0.64089124  0.42305593  0.40771198     1.34900
C1284       C  0.60159841  0.49461221  0.30357924     0.84100
O1285       O  0.68423195  0.43736658  0.32946394    -0.80000
O1286       O  0.67568580  0.41806295  0.38869543    -0.90200
C1287       C  0.64935305  0.44090312  0.23910290     0.83700
O1288       O  0.61140521  0.38141971  0.38882862    -0.68400
O1289       O  0.54743502  0.41986267  0.27456862    -0.87700
C1290       C  0.61203062  0.36849431  0.35780618     0.84500
C1291       C  0.69173050  0.42572945  0.35895826     1.06100
H1292       H  0.58648395  0.40076926  0.30661390     0.37900
O1293       O  0.60014246  0.42366638  0.30581152    -1.10400
O1294       O  0.61084608  0.48448878  0.33302382    -0.67000
Ni1295     Ni  0.59494992  0.44077479  0.35154835     1.26300
O1296       O  0.62622785  0.38548789  0.32930368    -0.67300
O1297       O  0.55211327  0.43276100  0.33681378    -0.79600
C1298       C  0.60308465  0.45178175  0.43039771     0.83900
O1299       O  0.59375801  0.45957705  0.39927038    -0.66700
Ni1300     Ni  0.59011769  0.43773323  0.25898446     1.27400
Ni1301     Ni  0.64246491  0.43104466  0.31607695     1.26100
H1302       H  0.65151725  0.46828200  0.36646682     0.38400
O1303       O  0.88151719  0.34144038  0.56833829    -0.81500
O1304       O  0.85515960  0.28785441  0.73653513    -0.66200
O1305       O  0.87146761  0.33457088  0.64419447    -1.12800
C1306       C  0.97643847  0.37368532  0.68761931     1.05400
O1307       O  0.88651468  0.33081405  0.77043210    -0.79400
O1308       O  0.91489363  0.38523198  0.72989696    -0.67000
Ni1309     Ni  0.85208633  0.30919275  0.60000868     1.34900
C1310       C  0.91853504  0.40020003  0.69871841     0.84100
O1311       O  0.81821751  0.29349642  0.68201103    -0.80000
O1312       O  0.81812585  0.27499431  0.62518033    -0.90200
C1313       C  0.86267814  0.30329003  0.76714345     0.83700
O1314       O  0.87859547  0.28870310  0.60894560    -0.68400
O1315       O  0.96527233  0.37293352  0.71996768    -0.87700
C1316       C  0.87779648  0.27230644  0.63869908     0.84500
C1317       C  0.80462729  0.27355432  0.65570751     1.06100
H1318       H  0.91277825  0.31013913  0.69771165     0.37900
O1319       O  0.90653889  0.32710384  0.69747887    -1.10400
O1320       O  0.92215209  0.38913037  0.66808178    -0.67000
Ni1321     Ni  0.91618686  0.34861149  0.65002965     1.26300
O1322       O  0.86346415  0.27343328  0.66776597    -0.67300
O1323       O  0.95952094  0.36097279  0.65807030    -0.79600
C1324       C  0.90861220  0.36527917  0.57231100     0.83900
O1325       O  0.92571420  0.37086743  0.60243749    -0.66700
Ni1326     Ni  0.92484030  0.35101398  0.74266203     1.27400
Ni1327     Ni  0.86253652  0.31043610  0.69011618     1.26100
H1328       H  0.86619802  0.35216222  0.64557274     0.38400
O1329       O  0.80426095  0.27951879  0.10251548    -0.81500
O1330       O  0.80467016  0.25875025  0.92614172    -0.66200
O1331       O  0.80000767  0.28612589  0.02452773    -1.12800
C1332       C  0.69287263  0.21931081  0.00833979     1.05400
O1333       O  0.76196695  0.26014603  0.90092023    -0.79400
O1334       O  0.74377110  0.28929710  0.95187287    -0.67000
Ni1335     Ni  0.82938697  0.28227854  0.06080765     1.34900
C1336       C  0.74489025  0.30141074  0.98389206     0.84100
O1337       O  0.84462942  0.30402153  0.97133688    -0.80000
O1338       O  0.86004968  0.28799587  0.02420200    -0.90200
C1339       C  0.78849118  0.26039992  0.89778237     0.83700
O1340       O  0.80747167  0.23661498  0.05434697    -0.68400
O1341       O  0.69790261  0.22986568  0.97448395    -0.87700
C1342       C  0.80344520  0.22261668  0.02274715     0.84500
C1343       C  0.86574980  0.30195682  0.99206912     1.06100
H1344       H  0.75650818  0.22043823  0.97911154     0.37900
O1345       O  0.75962223  0.24233375  0.97918967    -1.10400
O1346       O  0.74421552  0.28686078  0.01487043    -0.67000
Ni1347     Ni  0.75705467  0.25476160  0.02977397     1.26300
O1348       O  0.81305514  0.23903196  0.99256540    -0.67300
O1349       O  0.71449066  0.22344444  0.03309225    -0.79600
C1350       C  0.77692704  0.27693046  0.10657360     0.83900
O1351       O  0.75560955  0.26803899  0.08024864    -0.66700
Ni1352     Ni  0.73184075  0.24555183  0.94051140     1.27400
Ni1353     Ni  0.80236934  0.27261357  0.97493725     1.26100
H1354       H  0.80258688  0.30787457  0.02408742     0.38400
O1355       O  0.84716901  0.37694517  0.44437600    -0.81500
O1356       O  0.78956495  0.33684997  0.27580556    -0.66200
O1357       O  0.83614193  0.35423498  0.37031022    -1.12800
C1358       C  0.88320795  0.45909597  0.31691136     1.05400
O1359       O  0.83399567  0.36026716  0.24535893    -0.79400
O1360       O  0.89206992  0.40068149  0.27760766    -0.67000
Ni1361     Ni  0.81237389  0.34512566  0.41477100     1.34900
C1362       C  0.90475484  0.39550603  0.30774866     0.84100
O1363       O  0.78857821  0.30121217  0.33572740    -0.80000
O1364       O  0.77544109  0.31020448  0.39197407    -0.90200
C1365       C  0.80465131  0.34087255  0.24599860     0.83700
O1366       O  0.79747480  0.37556156  0.39968361    -0.68400
O1367       O  0.87196633  0.44606219  0.28474166    -0.87700
C1368       C  0.78040670  0.37299265  0.36991105     0.84500
C1369       C  0.77011180  0.29279872  0.36275074     1.06100
H1370       H  0.82147918  0.39985242  0.31591771     0.37900
O1371       O  0.83481091  0.38945943  0.31425212    -1.10400
O1372       O  0.89214379  0.39085966  0.33944006    -0.67000
Ni1373     Ni  0.86012909  0.39895638  0.35947572     1.26300
O1374       O  0.77911098  0.35502238  0.34247559    -0.67300
O1375       O  0.88234353  0.44335427  0.34717379    -0.79600
C1376       C  0.87575010  0.39636118  0.43807042     0.83900
O1377       O  0.88523150  0.40696267  0.40537135    -0.66700
Ni1378     Ni  0.85324998  0.40288161  0.26677761     1.27400
Ni1379     Ni  0.81161325  0.34518592  0.32392123     1.26100
H1380       H  0.84910293  0.34325691  0.37131649     0.38400
O1381       O  0.92722037  0.09722697  0.56306840    -0.81500
O1382       O  0.93553461  0.14290618  0.73038550    -0.66200
O1383       O  0.95288310  0.13039050  0.62911512    -1.12800
C1384       C  0.93578196  0.02907105  0.68300364     1.05400
O1385       O  0.97261082  0.12922784  0.74953747    -0.79400
O1386       O  0.99392089  0.09043994  0.71397545    -0.67000
Ni1387     Ni  0.92853259  0.13432140  0.58656157     1.34900
C1388       C  0.50583614  0.09676141  0.68600129     0.84100
O1389       O  0.94588880  0.17869351  0.66699109    -0.80000
O1390       O  0.92792072  0.17198255  0.60627133    -0.90200
C1391       C  0.95656111  0.14429366  0.75511765     0.83700
O1392       O  0.88784699  0.10793949  0.60614031    -0.68400
O1393       O  0.93636507  0.04154229  0.71507671    -0.87700
C1394       C  0.87722001  0.10792073  0.63842570     0.84500
C1395       C  0.93505431  0.18722582  0.63749548     1.06100
H1396       H  0.91380260  0.07988078  0.68745230     0.37900
O1397       O  0.93616626  0.09409529  0.68670510    -1.10400
O1398       O  0.99375046  0.10377812  0.65325440    -0.67000
Ni1399     Ni  0.94913035  0.08793644  0.63912893     1.26300
O1400       O  0.89572190  0.11947873  0.66776197    -0.67300
O1401       O  0.94258867  0.04509606  0.65187525    -0.79600
C1402       C  0.95150712  0.09307489  0.56035337     0.83900
O1403       O  0.96258626  0.08486893  0.58960849    -0.66700
Ni1404     Ni  0.95426868  0.08537681  0.73125316     1.27400
Ni1405     Ni  0.94154620  0.13665486  0.67823822     1.26100
H1406       H  0.97478697  0.14537079  0.62578736     0.38400
O1407       O  0.51708560  0.23947617  0.90483524    -0.81500
O1408       O  0.53883129  0.24350894  0.07935614    -0.66200
O1409       O  0.51583780  0.21494538  0.97753461    -1.12800
C1410       C  0.94412190  0.25420832  0.99638447     1.05400
O1411       O  0.99124826  0.21312354  0.09423365    -0.79400
O1412       O  0.93756424  0.19154426  0.04706202    -0.67000
Ni1413     Ni  0.54636908  0.23323636  0.93952604     1.34900
C1414       C  0.93227099  0.17302028  0.01903599     0.84100
O1415       O  0.56087452  0.21722917  0.03083669    -0.80000
O1416       O  0.57661276  0.22569269  0.97074446    -0.90200
C1417       C  0.51908540  0.22562779  0.10297259     0.83700
O1418       O  0.56554447  0.27842079  0.95375162    -0.68400
O1419       O  0.95043402  0.25363988  0.03201030    -0.87700
C1420       C  0.57267085  0.29192302  0.98614348     0.84500
C1421       C  0.57866029  0.21754703  0.00520096     1.06100
H1422       H  0.50666413  0.26630226  0.01883680     0.37900
O1423       O  0.99793738  0.24298024  0.02182428    -1.10400
O1424       O  0.95064026  0.18173566  0.99100716    -0.67000
Ni1425     Ni  0.98169934  0.22465328  0.97325626     1.26300
O1426       O  0.56126694  0.27543267  0.01605635    -0.67300
O1427       O  0.95010503  0.23875752  0.97143982    -0.79600
C1428       C  0.98897587  0.21619429  0.89710428     0.83900
O1429       O  0.96904513  0.20693660  0.92303556    -0.66700
Ni1430     Ni  0.97054642  0.23307072  0.06209537     1.27400
Ni1431     Ni  0.52946914  0.23105532  0.02762204     1.26100
H1432       H  0.50798493  0.19187218  0.97777036     0.38400
O1433       O  0.56602656  0.15867822  0.23796298    -0.81500
O1434       O  0.52483883  0.11453970  0.40213573    -0.66200
O1435       O  0.53649549  0.15230830  0.30353023    -1.12800
C1436       C  0.63897413  0.21236578  0.35868386     1.05400
O1437       O  0.54216895  0.16351737  0.42473195    -0.79400
O1438       O  0.58232097  0.22161446  0.39209130    -0.67000
Ni1439     Ni  0.52927942  0.12621632  0.26006977     1.34900
C1440       C  0.57466644  0.23121418  0.36129354     0.84100
O1441       O  0.98955551  0.10284622  0.33835911    -0.80000
O1442       O  0.99315649  0.09207454  0.27791340    -0.90200
C1443       C  0.52549091  0.13317069  0.42808338     0.83700
O1444       O  0.55444551  0.10613063  0.27810938    -0.68400
O1445       O  0.62649397  0.20163448  0.39043307    -0.87700
C1446       C  0.55572265  0.09353418  0.30996793     0.84500
C1447       C  0.97814603  0.08668505  0.30825853     1.06100
H1448       H  0.58559238  0.14844582  0.36030107     0.37900
O1449       O  0.57335506  0.16015282  0.36059522    -1.10400
O1450       O  0.56691387  0.21432321  0.33140189    -0.67000
Ni1451     Ni  0.57950310  0.18316716  0.31424572     1.26300
O1452       O  0.54327812  0.09825498  0.33891554    -0.67300
O1453       O  0.62312477  0.21101396  0.32767996    -0.79600
C1454       C  0.57078640  0.18759637  0.23644189     0.83900
O1455       O  0.58213445  0.20463075  0.26597621    -0.66700
Ni1456     Ni  0.58448957  0.18281348  0.40662812     1.27400
Ni1457     Ni  0.53046127  0.13126144  0.35145919     1.26100
H1458       H  0.52327220  0.16297426  0.30099714     0.38400
C1459       C  0.55812983  0.23951833  0.15804810    -0.26900
C1460       C  0.53106989  0.21642445  0.13853280    -0.15000
C1461       C  0.51762240  0.18420992  0.15128472     0.35600
C1462       C  0.53168939  0.17581588  0.18264518    -0.26400
C1463       C  0.55854149  0.19884780  0.20254385    -0.15600
C1464       C  0.57155717  0.23125596  0.19016050     0.36700
N1465       N  0.59879079  0.25611209  0.20883366    -0.89900
H1466       H  0.56890791  0.26426949  0.14828306     0.17800
H1467       H  0.52114172  0.15096389  0.19201534     0.17800
N1468       N  0.49054705  0.15977865  0.13143035    -0.88900
H1469       H  0.61699844  0.24950427  0.20965218     0.35200
H1470       H  0.59326137  0.25810294  0.23650390     0.40300
H1471       H  0.47124300  0.16388513  0.13625508     0.39900
H1472       H  0.48504345  0.13702244  0.14273987     0.34800
C1473       C  0.99511337  0.17762433  0.80592739    -0.26900
C1474       C  0.96415960  0.16455956  0.79004497    -0.15000
C1475       C  0.94137015  0.16957751  0.80932276     0.35600
C1476       C  0.94986433  0.18681202  0.84365067    -0.26400
C1477       C  0.98085719  0.19975168  0.85943563    -0.15600
C1478       C  0.50459180  0.20196810  0.83542775     0.36700
N1479       N  0.53748587  0.21916944  0.84673365    -0.89900
H1480       H  0.51372428  0.18369087  0.78453787     0.17800
H1481       H  0.93198942  0.18991057  0.85824693     0.17800
N1482       N  0.90917050  0.15648036  0.79563880    -0.88900
H1483       H  0.55160076  0.21778476  0.82586277     0.35200
H1484       H  0.54128894  0.20755744  0.87062539     0.40300
H1485       H  0.90023838  0.13159958  0.79277173     0.39900
H1486       H  0.90843362  0.16653870  0.76911426     0.34800
C1487       C  0.48994010  0.13757901  0.47368492    -0.26900
C1488       C  0.50528908  0.12037561  0.46123204    -0.15000
C1489       C  0.50232910  0.09284775  0.48193922     0.35600
C1490       C  0.98497162  0.08406338  0.51383306    -0.26400
C1491       C  0.96831122  0.10071111  0.52417555    -0.15600
C1492       C  0.97038757  0.12701333  0.50155135     0.36700
N1493       N  0.95518663  0.14580408  0.51232924    -0.89900
H1494       H  0.49229399  0.15880803  0.45815372     0.17800
H1495       H  0.98408918  0.06427161  0.53124824     0.17800
N1496       N  0.51790855  0.07457986  0.47119272    -0.88900
H1497       H  0.95849640  0.16381488  0.49231920     0.35200
H1498       H  0.96641848  0.15760680  0.53751236     0.40300
H1499       H  0.54207086  0.09004276  0.46999552     0.39900
H1500       H  0.50923619  0.06506274  0.44426375     0.34800
C1501       C  0.72502030  0.24853104  0.39126213    -0.26900
C1502       C  0.73923740  0.26486835  0.35847291    -0.15000
C1503       C  0.72123365  0.25931100  0.32423945     0.35600
C1504       C  0.68857971  0.24065137  0.32448212    -0.26400
C1505       C  0.67370404  0.22729680  0.35834498    -0.15600
C1506       C  0.69246701  0.22926987  0.39161310     0.36700
N1507       N  0.67861735  0.21279331  0.42597041    -0.89900
H1508       H  0.73923059  0.25227839  0.41727798     0.17800
H1509       H  0.67481832  0.23812705  0.29835902     0.17800
N1510       N  0.73554733  0.27446605  0.28976783    -0.88900
H1511       H  0.69576079  0.21819994  0.44790597     0.35200
H1512       H  0.66942706  0.18812824  0.42097794     0.40300
H1513       H  0.72514379  0.28880436  0.27984791     0.39900
H1514       H  0.73042310  0.25646267  0.26979771     0.34800
C1515       C  0.90515792  0.01211615  0.27936264    -0.26900
C1516       C  0.89982518  0.49442462  0.31837871    -0.15000
C1517       C  0.91475824  0.51100138  0.35216678     0.35600
C1518       C  0.93911642  0.04255641  0.34511858    -0.26400
C1519       C  0.94748199  0.05819022  0.31000752    -0.15600
C1520       C  0.92870117  0.04359371  0.27719719     0.36700
N1521       N  0.93345016  0.05948903  0.24113871    -0.89900
H1522       H  0.89104533  0.50010041  0.25856689     0.17800
H1523       H  0.44880337  0.05451037  0.37177529     0.17800
N1524       N  0.90707119  0.49536750  0.38846940    -0.88900
H1525       H  0.95462815  0.06237827  0.23051628     0.35200
H1526       H  0.93423860  0.08199394  0.24455278     0.40300
H1527       H  0.88366123  0.48992901  0.39307231     0.39900
H1528       H  0.92083991  0.51095216  0.41016994     0.34800
C1529       C  0.77536473  0.31916092  0.14447687    -0.26900
C1530       C  0.77186414  0.28772626  0.14316636    -0.15000
C1531       C  0.77361547  0.27208393  0.17730595     0.35600
C1532       C  0.78200008  0.28938676  0.21132194    -0.26400
C1533       C  0.78866744  0.32186523  0.21192112    -0.15600
C1534       C  0.78392870  0.33653404  0.17839201     0.36700
N1535       N  0.78854495  0.36917821  0.17741780    -0.89900
H1536       H  0.77417652  0.33133290  0.11837938     0.17800
H1537       H  0.78534431  0.27797664  0.23702349     0.17800
N1538       N  0.76881554  0.23938998  0.17809956    -0.88900
H1539       H  0.80811069  0.38268597  0.16119890     0.35200
H1540       H  0.79357473  0.37937973  0.20434975     0.40300
H1541       H  0.76192957  0.22894887  0.15131664     0.39900
H1542       H  0.74984715  0.22625275  0.19533584     0.34800
C1543       C  0.89195224  0.28609008  0.94809705    -0.26900
C1544       C  0.89533951  0.30849402  0.97571536    -0.15000
C1545       C  0.92228683  0.32086933  0.00014154     0.35600
C1546       C  0.93965053  0.30381639  0.00434501    -0.26400
C1547       C  0.93061474  0.27541918  0.98375937    -0.15600
C1548       C  0.90824078  0.26794119  0.95315849     0.36700
N1549       N  0.89905362  0.24031443  0.92968058    -0.96200
H1550       H  0.87195714  0.27763077  0.92794888     0.17800
H1551       H  0.95853378  0.31127579  0.02594620     0.17800
N1552       N  0.92920658  0.34721593  0.02512078    -0.88900
H1553       H  0.89132325  0.21979433  0.94686112     0.35200
H1554       H  0.91862693  0.24284524  0.91517323     0.40300
H1555       H  0.91381681  0.35713599  0.01881190     0.39900
H1556       H  0.95179951  0.36521534  0.01938104     0.34800
C1557       C  0.65393158  0.22222848  0.04754155    -0.26900
C1558       C  0.66038691  0.20572890  0.01950155    -0.15000
C1559       C  0.63637328  0.18611439  0.99363550     0.35600
C1560       C  0.60793354  0.18777369  0.99175800    -0.26400
C1561       C  0.60350638  0.20862392  0.01564931    -0.15600
C1562       C  0.62546255  0.22416170  0.04565650     0.36700
N1563       N  0.62043696  0.24472735  0.07109165    -0.89900
H1564       H  0.67261423  0.23722474  0.06748056     0.17800
H1565       H  0.59043182  0.17493229  0.96955924     0.17800
N1566       N  0.64218769  0.16721759  0.96678078    -0.88900
H1567       H  0.63996243  0.25611713  0.08980492     0.35200
H1568       H  0.60152878  0.23006620  0.08768384     0.40300
H1569       H  0.63911057  0.17492005  0.93958213     0.39900
H1570       H  0.62517575  0.14328560  0.96979825     0.34800
C1571       C  0.83950645  0.26298888  0.81796040    -0.26900
C1572       C  0.84162881  0.29035663  0.79865179    -0.15000
C1573       C  0.82279511  0.30473214  0.80865525     0.35600
C1574       C  0.80334174  0.29245538  0.83950478    -0.26400
C1575       C  0.80277274  0.26643069  0.86067343    -0.15600
C1576       C  0.82007529  0.25059630  0.84883889     0.36700
N1577       N  0.81853945  0.22213826  0.86729023    -0.89900
H1578       H  0.85328800  0.25139709  0.80923476     0.17800
H1579       H  0.78999506  0.30446016  0.84842275     0.17800
N1580       N  0.82345380  0.33164759  0.78734487    -0.88900
H1581       H  0.81070837  0.20397376  0.84695024     0.35200
H1582       H  0.80152385  0.21365062  0.88775830     0.40300
H1583       H  0.84582211  0.35109152  0.79175336     0.39900
H1584       H  0.80734735  0.33865722  0.79761884     0.34800
C1585       C  0.92922804  0.48272550  0.72537599    -0.26900
C1586       C  0.92747797  0.49570583  0.68948851    -0.15000
C1587       C  0.92041208  0.47626085  0.65714715     0.35600
C1588       C  0.91647702  0.44480347  0.66135611    -0.26400
C1589       C  0.91963421  0.43229940  0.69707001    -0.15600
C1590       C  0.92575172  0.45145437  0.72956366     0.36700
N1591       N  0.92958395  0.43975626  0.76649174    -0.89900
H1592       H  0.93475152  0.49750585  0.75040600     0.17800
H1593       H  0.91131220  0.43009900  0.63631671     0.17800
N1594       N  0.91743423  0.48841532  0.62019905    -0.88900
H1595       H  0.93277248  0.45652445  0.78737319     0.35200
H1596       H  0.95042130  0.43749310  0.76697700     0.40300
H1597       H  0.92239158  0.99966503  0.60416949     0.39900
H1598       H  0.91290590  0.47117966  0.59940318     0.34800
C1599       C  0.90816623  0.21247700  0.67105284    -0.26900
C1600       C  0.92608944  0.21337456  0.64042196    -0.15000
C1601       C  0.92902730  0.23436853  0.60985988     0.35600
C1602       C  0.91321561  0.25340866  0.61008219    -0.26400
C1603       C  0.89391851  0.25147513  0.63988682    -0.15600
C1604       C  0.89151778  0.23067579  0.67092239     0.36700
N1605       N  0.87151869  0.22716006  0.70170161    -0.89900
H1606       H  0.90522709  0.19564463  0.69401781     0.17800
H1607       H  0.91573280  0.26955155  0.58651456     0.17800
N1608       N  0.94760644  0.23579372  0.57840776    -0.88900
H1609       H  0.87345304  0.21189223  0.72265664     0.35200
H1610       H  0.84815182  0.21579324  0.69103957     0.40300
H1611       H  0.97102143  0.24454552  0.58852771     0.39900
H1612       H  0.94721727  0.25226356  0.55807688     0.34800
C1613       C  0.90515650  0.40952231  0.53859692    -0.26900
C1614       C  0.91826560  0.38803073  0.54045752    -0.15000
C1615       C  0.92700997  0.37937530  0.50676290     0.35600
C1616       C  0.91703439  0.38738172  0.47195287    -0.26400
C1617       C  0.89864065  0.40380573  0.47035903    -0.15600
C1618       C  0.89480874  0.41719305  0.50383037     0.36700
N1619       N  0.87831526  0.43635271  0.50373581    -0.89900
H1620       H  0.89869849  0.41658272  0.56442818     0.17800
H1621       H  0.91997210  0.37688945  0.44651803     0.17800
N1622       N  0.94257843  0.35932201  0.50701673    -0.88900
H1623       H  0.85706026  0.42304199  0.51711154     0.35200
H1624       H  0.87271057  0.44111008  0.47613776     0.40300
H1625       H  0.94895925  0.35558047  0.53468989     0.39900
H1626       H  0.96373693  0.37203545  0.49324026     0.34800
C1627       C  0.73752091  0.42260130  0.39172274    -0.26900
C1628       C  0.71849783  0.41789246  0.35862898    -0.15000
C1629       C  0.72180584  0.40054128  0.32852410     0.35600
C1630       C  0.74274078  0.38723951  0.33273285    -0.26400
C1631       C  0.76071710  0.39038192  0.36660003    -0.15600
C1632       C  0.75863371  0.40941452  0.39601308     0.36700
N1633       N  0.77692155  0.41537920  0.43089241    -0.89900
H1634       H  0.73517598  0.43579868  0.41509265     0.17800
H1635       H  0.74408924  0.37340561  0.30941214     0.17800
N1636       N  0.70293499  0.39435344  0.29410298    -0.88900
H1637       H  0.80087245  0.42673320  0.42498476     0.35200
H1638       H  0.77120897  0.39348639  0.44468895     0.40300
H1639       H  0.70759388  0.41636330  0.28122904     0.39900
H1640       H  0.67912218  0.38226872  0.30056542     0.34800
C1641       C  0.98569199  0.40353964  0.33903385    -0.26900
C1642       C  0.50186932  0.41427690  0.30389001    -0.15000
C1643       C  0.98540631  0.41617106  0.27205304     0.35600
C1644       C  0.95309123  0.40740641  0.27293865    -0.26400
C1645       C  0.93685657  0.39754924  0.30665452    -0.15600
C1646       C  0.95319928  0.39415738  0.33975732     0.36700
N1647       N  0.93704903  0.38157642  0.37420558    -0.89900
H1648       H  0.99819395  0.40155956  0.36458039     0.17800
H1649       H  0.94091714  0.40975693  0.24730535     0.17800
N1650       N  0.50630152  0.43836974  0.23991222    -0.88900
H1651       H  0.95269565  0.38112995  0.39569577     0.35200
H1652       H  0.92059846  0.35762090  0.36924368     0.40300
H1653       H  0.52289392  0.46124432  0.24908980     0.39900
H1654       H  0.98549625  0.42596684  0.21495832     0.34800
C1655       C  0.58790019  0.07043446  0.28034639    -0.26900
C1656       C  0.57199300  0.07222311  0.31215461    -0.15000
C1657       C  0.57126294  0.05284895  0.34401100     0.35600
C1658       C  0.58416945  0.03094261  0.34206899    -0.26400
C1659       C  0.59790727  0.02757233  0.30911025    -0.15600
C1660       C  0.60039366  0.04851479  0.27830329     0.36700
N1661       N  0.60920402  0.54091800  0.23965831    -0.89900
H1662       H  0.58986633  0.08557317  0.25588789     0.17800
H1663       H  0.58188457  0.01509323  0.36589281     0.17800
N1664       N  0.55646324  0.05443399  0.37777708    -0.88900
H1665       H  0.63183067  0.54305442  0.24507132     0.35200
H1666       H  0.59473859  0.51859513  0.22736488     0.40300
H1667       H  0.57025865  0.07709444  0.38976095     0.39900
H1668       H  0.55661058  0.03764872  0.39780131     0.34800
C1669       C  0.58470543  0.31415498  0.38895796    -0.26900
C1670       C  0.59717527  0.33231055  0.35597528    -0.15000
C1671       C  0.59724114  0.31554901  0.32314278     0.35600
C1672       C  0.58773247  0.28215710  0.32524614    -0.26400
C1673       C  0.57785206  0.26464852  0.35915158    -0.15600
C1674       C  0.57521464  0.28095310  0.39094485     0.36700
N1675       N  0.56286815  0.26459601  0.42569952    -0.89900
H1676       H  0.58335437  0.32600189  0.41421591     0.17800
H1677       H  0.58957230  0.27002865  0.30057088     0.17800
N1678       N  0.60775959  0.33241791  0.28799655    -0.88900
H1679       H  0.57825957  0.25646010  0.43802888     0.35200
H1680       H  0.54091875  0.24492344  0.41975405     0.40300
H1681       H  0.59157245  0.34071457  0.27888631     0.39900
H1682       H  0.60724039  0.31679488  0.26704557     0.34800
C1683       C  0.68703253  0.48090242  0.19469724    -0.26900
C1684       C  0.67177790  0.44888016  0.20749045    -0.15000
C1685       C  0.67710747  0.42553433  0.18857769     0.35600
C1686       C  0.69671048  0.43472315  0.15696239    -0.26400
C1687       C  0.71174064  0.46683870  0.14412246    -0.15600
C1688       C  0.70676612  0.49008136  0.16380168     0.36700
N1689       N  0.71999078  0.52303836  0.15186694    -0.89900
H1690       H  0.68325294  0.49915514  0.20863295     0.17800
H1691       H  0.69978439  0.41658753  0.14177673     0.17800
N1692       N  0.66109515  0.39231468  0.19979889    -0.88900
H1693       H  0.71272864  0.52393878  0.12368350     0.35200
H1694       H  0.74457853  0.53295068  0.15390351     0.40300
H1695       H  0.67019572  0.39025239  0.22658067     0.39900
H1696       H  0.66618995  0.37806856  0.18179915     0.34800
C1697       C  0.63783996  0.37652817  0.02046930    -0.26900
C1698       C  0.64400545  0.39532506  0.98704822    -0.15000
C1699       C  0.62378915  0.38032708  0.95479912     0.35600
C1700       C  0.60048776  0.34768595  0.95595958    -0.26400
C1701       C  0.59566566  0.32815633  0.98855500    -0.15600
C1702       C  0.61437415  0.34374176  0.02162862     0.36700
N1703       N  0.61123258  0.32669416  0.05664247    -0.89900
H1704       H  0.65263186  0.38681851  0.04566737     0.17800
H1705       H  0.58630353  0.33728710  0.93040135     0.17800
N1706       N  0.62595457  0.39760992  0.92012088    -0.88900
H1707       H  0.61537302  0.30695385  0.05219029     0.35200
H1708       H  0.58820817  0.31853272  0.06544704     0.40300
H1709       H  0.64728806  0.40304719  0.90786187     0.39900
H1710       H  0.62500837  0.41893653  0.92608107     0.34800
C1711       C  0.88517074  0.12625055  0.98574051    -0.26900
C1712       C  0.90238186  0.14075436  0.01946392    -0.15000
C1713       C  0.88840922  0.12618876  0.05395755     0.35600
C1714       C  0.85790897  0.09948820  0.05420206    -0.26400
C1715       C  0.83971648  0.08611844  0.02068094    -0.15600
C1716       C  0.85433931  0.09957166  0.98600654     0.36700
N1717       N  0.83784256  0.08676711  0.95070962    -0.89900
H1718       H  0.89497736  0.13663963  0.95881375     0.17800
H1719       H  0.84794948  0.09000246  0.08133157     0.17800
N1720       N  0.90497241  0.13871147  0.08934079    -0.88900
H1721       H  0.85149580  0.07925129  0.93543812     0.35200
H1722       H  0.83599685  0.10533090  0.93545242     0.40300
H1723       H  0.89106332  0.14543886  0.10527575     0.39900
H1724       H  0.90757887  0.12025478  0.10387397     0.34800
C1725       C  0.75114430  0.13416530  0.04559394    -0.26900
C1726       C  0.75490660  0.11884770  0.01404221    -0.15000
C1727       C  0.77298536  0.13799009  0.98406846     0.35600
C1728       C  0.78827694  0.17157606  0.98740990    -0.26400
C1729       C  0.78632877  0.18685711  0.02025514    -0.15600
C1730       C  0.76634235  0.16781670  0.04897892     0.36700
N1731       N  0.76164826  0.18251748  0.08168135    -0.89900
H1732       H  0.73721787  0.11962771  0.06857459     0.17800
H1733       H  0.80266032  0.18574932  0.96453730     0.17800
N1734       N  0.77786053  0.12410301  0.95095154    -0.88900
H1735       H  0.74701574  0.16504977  0.10051106     0.35200
H1736       H  0.74960577  0.19548051  0.07247340     0.40300
H1737       H  0.75591302  0.10983122  0.93761913     0.39900
H1738       H  0.78847045  0.10958560  0.95920028     0.34800
C1739       C  0.76460283  0.38855571  0.96505836    -0.26900
C1740       C  0.74681166  0.39352851  0.99230792    -0.15000
C1741       C  0.72961417  0.36844725  0.01764300     0.35600
C1742       C  0.72962997  0.33872452  0.01438822    -0.26400
C1743       C  0.74615806  0.33331895  0.98596992    -0.15600
C1744       C  0.76442414  0.35882466  0.96155685     0.36700
N1745       N  0.78346490  0.35555208  0.93352705    -0.89900
H1746       H  0.77821383  0.40773083  0.94565918     0.17800
H1747       H  0.71583236  0.31943775  0.03358246     0.17800
N1748       N  0.71092113  0.37243273  0.04556107    -0.88900
H1749       H  0.76880254  0.33852411  0.91361015     0.35200
H1750       H  0.79872092  0.34758737  0.94679045     0.40300
H1751       H  0.71872591  0.36802032  0.07217160     0.39900
H1752       H  0.68751594  0.35504326  0.04083481     0.34800
C1753       C  0.69620195  0.06357755  0.83594534    -0.26900
C1754       C  0.70877343  0.06124107  0.80168301    -0.15000
C1755       C  0.72863933  0.04615018  0.80197230     0.35600
C1756       C  0.73608229  0.03470951  0.83636548    -0.26400
C1757       C  0.72318400  0.03677941  0.87033459    -0.15600
C1758       C  0.70288188  0.05138063  0.87008163     0.36700
N1759       N  0.68741265  0.05294436  0.90330198    -0.89900
H1760       H  0.68011009  0.07407603  0.83601788     0.17800
H1761       H  0.75107780  0.02292792  0.83645163     0.17800
N1762       N  0.73954175  0.04053396  0.76713775    -0.88900
H1763       H  0.69571079  0.07722161  0.90987607     0.35200
H1764       H  0.69301499  0.04225789  0.92674688     0.40300
H1765       H  0.71981597  0.02441007  0.75117635     0.39900
H1766       H  0.75397536  0.02933169  0.77222743     0.34800
C1767       C  0.78832744  0.07385649  0.61151407    -0.26900
C1768       C  0.77630697  0.08057461  0.64373227    -0.15000
C1769       C  0.79762553  0.09448720  0.67528067     0.35600
C1770       C  0.82962170  0.10132628  0.67378334    -0.26400
C1771       C  0.84191449  0.09556286  0.64105576    -0.15600
C1772       C  0.82043591  0.08107889  0.60980645     0.36700
N1773       N  0.83105902  0.07421375  0.57561870    -0.89900
H1774       H  0.77280599  0.06367754  0.58680408     0.17800
H1775       H  0.84532066  0.11282575  0.69795869     0.17800
N1776       N  0.78814538  0.10410527  0.70840886    -0.88900
H1777       H  0.82621856  0.08674284  0.55344650     0.35200
H1778       H  0.81799903  0.04960235  0.57017411     0.40300
H1779       H  0.77022777  0.08374520  0.72029126     0.39900
H1780       H  0.77931859  0.12023027  0.70043935     0.34800
C1781       C  0.55382443  0.09491491  0.71629248    -0.26900
C1782       C  0.53529361  0.09257568  0.68323175    -0.15000
C1783       C  0.54215542  0.08089704  0.65007576     0.35600
C1784       C  0.56595804  0.07056696  0.65135605    -0.26400
C1785       C  0.58323110  0.07111787  0.68507333    -0.15600
C1786       C  0.57770993  0.08487393  0.71760202     0.36700
N1787       N  0.59590981  0.08820165  0.75232632    -0.89900
H1788       H  0.54906619  0.10395420  0.74183378     0.17800
H1789       H  0.56997645  0.06060977  0.62608453     0.17800
N1790       N  0.02242018  0.07444892  0.61153539    -0.88900
H1791       H  0.58827062  0.09769095  0.77369598     0.35200
H1792       H  0.61918245  0.10507017  0.74751224     0.40300
H1793       H  0.99952719  0.05690937  0.61680207     0.39900
H1794       H  0.03023405  0.06545889  0.58982958     0.34800
C1795       C  0.55503732  0.43491964  0.64673466    -0.26900
C1796       C  0.57322245  0.44271405  0.68072838    -0.15000
C1797       C  0.56186171  0.42288729  0.71275001     0.35600
C1798       C  0.53086640  0.39844724  0.71183210    -0.26400
C1799       C  0.01051238  0.39282581  0.68392112    -0.15600
C1800       C  0.52390564  0.41069495  0.64584354     0.36700
N1801       N  0.00317207  0.40503222  0.61660509    -0.89900
H1802       H  0.56158240  0.95162708  0.61720239     0.17800
H1803       H  0.52162834  0.38462540  0.73735717     0.17800
N1804       N  0.58121830  0.42849011  0.74674304    -0.88900
H1805       H  0.51341954  0.90124081  0.58531216     0.35200
H1806       H  0.00168401  0.42618843  0.60964252     0.40300
H1807       H  0.58296882  0.40743334  0.75343589     0.39900
H1808       H  0.56980466  0.43298125  0.76861937     0.34800
C1809       C  0.75542544  0.19132075  0.68996223    -0.26900
C1810       C  0.73866007  0.17779626  0.65593026    -0.15000
C1811       C  0.73627053  0.19830740  0.62722084     0.35600
C1812       C  0.75470894  0.23146165  0.63055199    -0.26400
C1813       C  0.77528380  0.24444741  0.66200903    -0.15600
C1814       C  0.77354592  0.22467750  0.69347472     0.36700
N1815       N  0.79249857  0.23813277  0.72734613    -0.89900
H1816       H  0.75605365  0.17589582  0.71302670     0.17800
H1817       H  0.75535774  0.24681240  0.60673933     0.17800
N1818       N  0.71620836  0.18572381  0.59399167    -0.88900
H1819       H  0.78941512  0.22010922  0.74725192     0.35200
H1820       H  0.78426101  0.25292386  0.73935236     0.40300
H1821       H  0.73020213  0.19345960  0.57035132     0.39900
H1822       H  0.70037138  0.19550431  0.59216358     0.34800
C1823       C  0.59109604  0.47181491  0.49044296    -0.26900
C1824       C  0.61284120  0.47344895  0.46404649    -0.15000
C1825       C  0.64507479  0.49485891  0.47091145     0.35600
C1826       C  0.65451749  0.00027379  0.51297744    -0.26400
C1827       C  0.63469344  0.00995863  0.53110018    -0.15600
C1828       C  0.60106168  0.49066542  0.52392897     0.36700
N1829       N  0.57800227  0.48892257  0.54978582    -0.89900
H1830       H  0.56630754  0.45561047  0.48507256     0.17800
H1831       H  0.67833609  0.00758249  0.52427243     0.17800
N1832       N  0.66767817  0.49799638  0.44356648    -0.88900
H1833       H  0.55533142  0.47223490  0.54045452     0.35200
H1834       H  0.59209485  0.03434836  0.53050804     0.40300
H1835       H  0.66877887  0.47619485  0.44289649     0.39900
H1836       H  0.68527363  0.99277144  0.45560840     0.34800
O1837       O  0.66684664  0.56618458  0.76334660    -0.81500
O1838       O  0.62841819  0.52720527  0.59478498    -0.66200
O1839       O  0.66356608  0.53636659  0.69632288    -1.12800
C1840       C  0.72293962  0.64249789  0.65312224     1.05400
O1841       O  0.67642370  0.54755121  0.57330528    -0.79400
O1842       O  0.73285659  0.58537918  0.61363279    -0.67000
Ni1843     Ni  0.63704059  0.52789264  0.73826435     1.34900
C1844       C  0.74287566  0.57772315  0.64433510     0.84100
O1845       O  0.61470128  0.98857122  0.65029345    -0.80000
O1846       O  0.60475708  0.98930403  0.71156668    -0.90200
C1847       C  0.64664087  0.52980482  0.56830530     0.83700
O1848       O  0.61467742  0.55112537  0.72033062    -0.68400
O1849       O  0.71412397  0.63143002  0.61954752    -0.87700
C1850       C  0.60413918  0.55455885  0.68776647     0.84500
C1851       C  0.59917851  0.97552662  0.67947379     1.06100
H1852       H  0.66121290  0.58791617  0.64309137     0.37900
O1853       O  0.67275671  0.57554008  0.64218817    -1.10400
O1854       O  0.72663760  0.56977330  0.67397640    -0.67000
Ni1855     Ni  0.69407516  0.58036878  0.69051201     1.26300
O1856       O  0.61137831  0.54483177  0.65798434    -0.67300
O1857       O  0.72100013  0.62509024  0.68245210    -0.79600
C1858       C  0.69528698  0.57174537  0.76890988     0.83900
O1859       O  0.71316142  0.58173725  0.74091882    -0.66700
Ni1860     Ni  0.69567569  0.58943984  0.59788853     1.27400
Ni1861     Ni  0.64384655  0.53162092  0.64681008     1.26100
H1862       H  0.67406282  0.52291361  0.69848340     0.38400
O1863       O  0.75393251  0.50161406  0.10431567    -0.81500
O1864       O  0.74993250  0.54013787  0.93307186    -0.66200
O1865       O  0.73006408  0.51167489  0.03531321    -1.12800
C1866       C  0.74392843  0.92362652  0.98869435     1.05400
O1867       O  0.71417463  0.99140113  0.90953078    -0.79400
O1868       O  0.68966643  0.93258761  0.94890805    -0.67000
Ni1869     Ni  0.75510646  0.53829370  0.07669223     1.34900
C1870       C  0.67477974  0.92599149  0.97936750     0.84100
O1871       O  0.73872107  0.56669111  0.99314018    -0.80000
O1872       O  0.75714671  0.57686672  0.05349302    -0.90200
C1873       C  0.72868648  0.52271419  0.90879402     0.83700
O1874       O  0.79658076  0.54977969  0.05819381    -0.68400
O1875       O  0.74689195  0.93687508  0.95599059    -0.87700
C1876       C  0.80700442  0.56106503  0.02560822     0.84500
C1877       C  0.75019733  0.58559597  0.02138720     1.06100
H1878       H  0.76860928  0.99612406  0.97988842     0.37900
O1879       O  0.74621269  0.98958184  0.97822159    -1.10400
O1880       O  0.68587707  0.94480175  0.00818357    -0.67000
Ni1881     Ni  0.73025843  0.97095392  0.02588154     1.26300
O1882       O  0.78829027  0.55390643  0.99617379    -0.67300
O1883       O  0.73611826  0.93343595  0.01807410    -0.79600
C1884       C  0.72616202  0.97463842  0.10422320     0.83900
O1885       O  0.71455693  0.95614063  0.07573332    -0.66700
Ni1886     Ni  0.73075592  0.96438812  0.93411143     1.27400
Ni1887     Ni  0.74250954  0.52819560  0.98554093     1.26100
H1888       H  0.70837623  0.50724498  0.03794669     0.38400
O1889       O  0.60629829  0.92501955  0.42929039    -0.81500
O1890       O  0.64698760  0.92253649  0.26317583    -0.66200
O1891       O  0.63653528  0.94591634  0.36264617    -1.12800
C1892       C  0.53665364  0.92794673  0.30451016     1.05400
O1893       O  0.63421127  0.95984424  0.24084668    -0.79400
O1894       O  0.59745039  0.98457532  0.27381656    -0.67000
Ni1895     Ni  0.64059462  0.92248898  0.40603692     1.34900
C1896       C  0.60368063  0.99864870  0.30558459     0.84100
O1897       O  0.68313822  0.93629472  0.32727395    -0.80000
O1898       O  0.67601168  0.91857684  0.38721063    -0.90200
C1899       C  0.64920461  0.94328382  0.23780322     0.83700
O1900       O  0.61208971  0.88056415  0.38690349    -0.68400
O1901       O  0.54855932  0.92680463  0.27317449    -0.87700
C1902       C  0.61171730  0.86822414  0.35506850     0.84500
C1903       C  0.69130505  0.92533124  0.35690783     1.06100
H1904       H  0.58568987  0.90369374  0.30389822     0.37900
O1905       O  0.59996165  0.92646071  0.30427671    -1.10400
O1906       O  0.61136517  0.98695115  0.33493822    -0.67000
Ni1907     Ni  0.59488792  0.94237728  0.35100242     1.26300
O1908       O  0.62424311  0.88578059  0.32618694    -0.67300
O1909       O  0.55239972  0.93571538  0.33650302    -0.79600
C1910       C  0.60299379  0.95043829  0.42997307     0.83900
O1911       O  0.59356749  0.95952235  0.39987486    -0.66700
Ni1912     Ni  0.59138224  0.94300670  0.25827871     1.27400
Ni1913     Ni  0.64175574  0.93181104  0.31442243     1.26100
H1914       H  0.65159310  0.96830140  0.36580262     0.38400
O1915       O  0.87718088  0.83692862  0.56255891    -0.81500
O1916       O  0.85618977  0.78659547  0.73228693    -0.66200
O1917       O  0.86985711  0.83165255  0.63893933    -1.12800
C1918       C  0.97586775  0.87227365  0.67788473     1.05400
O1919       O  0.88816071  0.83036837  0.76443212    -0.79400
O1920       O  0.91505557  0.88394005  0.72187815    -0.67000
Ni1921     Ni  0.84866238  0.80556672  0.59578191     1.34900
C1922       C  0.91782722  0.89819850  0.69029849     0.84100
O1923       O  0.81802577  0.79215610  0.67951471    -0.80000
O1924       O  0.81553100  0.77206648  0.62295668    -0.90200
C1925       C  0.86415123  0.80284676  0.76230444     0.83700
O1926       O  0.87530380  0.78518313  0.60324810    -0.68400
O1927       O  0.96544467  0.87205251  0.71058424    -0.87700
C1928       C  0.87598449  0.76979973  0.63330468     0.84500
C1929       C  0.80316601  0.77188878  0.65399370     1.06100
H1930       H  0.91258182  0.80808783  0.69137149     0.37900
O1931       O  0.90640528  0.82510658  0.69097929    -1.10400
O1932       O  0.92093429  0.88650213  0.65982615    -0.67000
Ni1933     Ni  0.91463823  0.84553185  0.64287351     1.26300
O1934       O  0.86216761  0.77101237  0.66283787    -0.67300
O1935       O  0.95831345  0.85842764  0.64912833    -0.79600
C1936       C  0.90489909  0.85995236  0.56501909     0.83900
O1937       O  0.92272235  0.86608936  0.59450739    -0.66700
Ni1938     Ni  0.92572919  0.85024585  0.73505352     1.27400
Ni1939     Ni  0.86232455  0.80849149  0.68543240     1.26100
H1940       H  0.86477004  0.84935074  0.64048324     0.38400
O1941       O  0.80689857  0.78289051  0.09799059    -0.81500
O1942       O  0.80541971  0.75876233  0.92223096    -0.66200
O1943       O  0.80160854  0.78740561  0.02018835    -1.12800
C1944       C  0.69463154  0.71901415  0.00490222     1.05400
O1945       O  0.76416911  0.76331228  0.89761931    -0.79400
O1946       O  0.74377619  0.78976101  0.94929241    -0.67000
Ni1947     Ni  0.83164952  0.78477725  0.05638409     1.34900
C1948       C  0.74517791  0.80168723  0.98148809     0.84100
O1949       O  0.84608049  0.80443539  0.96650754    -0.80000
O1950       O  0.86184907  0.78934793  0.01972138    -0.90200
C1951       C  0.79024678  0.76255203  0.89411302     0.83700
O1952       O  0.80992123  0.73908320  0.05144742    -0.68400
O1953       O  0.69918188  0.72928914  0.97081597    -0.87700
C1954       C  0.80542669  0.72420744  0.02039151     0.84500
C1955       C  0.86724076  0.80237132  0.98710289     1.06100
H1956       H  0.75806777  0.72150774  0.97508058     0.37900
O1957       O  0.76115674  0.74337841  0.97529519    -1.10400
O1958       O  0.74521351  0.78713718  0.01221913    -0.67000
Ni1959     Ni  0.75880813  0.75539656  0.02595100     1.26300
O1960       O  0.81411424  0.73965068  0.98934840    -0.67300
O1961       O  0.71654255  0.72363416  0.02941662    -0.79600
C1962       C  0.77883943  0.77791299  0.10262046     0.83900
O1963       O  0.75723242  0.76770765  0.07671590    -0.66700
Ni1964     Ni  0.73334184  0.74665176  0.93680490     1.27400
Ni1965     Ni  0.80376637  0.77332614  0.97081893     1.26100
H1966       H  0.80375794  0.80899371  0.01929659     0.38400
O1967       O  0.84866311  0.87901188  0.43719408    -0.81500
O1968       O  0.78914265  0.83764619  0.27080290    -0.66200
O1969       O  0.83674503  0.85435090  0.36408830    -1.12800
C1970       C  0.88360195  0.95930846  0.31134235     1.05400
O1971       O  0.83323949  0.86120215  0.23969601    -0.79400
O1972       O  0.89184638  0.90283034  0.27020393    -0.67000
Ni1973     Ni  0.81400678  0.84554428  0.40925434     1.34900
C1974       C  0.90448406  0.89611085  0.29930930     0.84100
O1975       O  0.78922695  0.80161864  0.32989601    -0.80000
O1976       O  0.77737332  0.80949425  0.38752284    -0.90200
C1977       C  0.80403110  0.84145353  0.24093672     0.83700
O1978       O  0.79750179  0.87479360  0.39502336    -0.68400
O1979       O  0.87051340  0.94670780  0.27955487    -0.87700
C1980       C  0.78018498  0.87231024  0.36559746     0.84500
C1981       C  0.77158216  0.79256848  0.35773725     1.06100
H1982       H  0.82152159  0.90041641  0.31192131     0.37900
O1983       O  0.83468634  0.88998590  0.30902602    -1.10400
O1984       O  0.89164705  0.88934776  0.33094134    -0.67000
Ni1985     Ni  0.86121876  0.89880257  0.35300845     1.26300
O1986       O  0.77898039  0.85476211  0.33779067    -0.67300
O1987       O  0.88419662  0.94314605  0.34069126    -0.79600
C1988       C  0.87765181  0.89599147  0.43036439     0.83900
O1989       O  0.88727794  0.90569319  0.39755567    -0.66700
Ni1990     Ni  0.85217213  0.90376079  0.26113395     1.27400
Ni1991     Ni  0.81167679  0.84563933  0.31836767     1.26100
H1992       H  0.84936129  0.84299963  0.36454908     0.38400
O1993       O  0.92734550  0.59404602  0.56376359    -0.81500
O1994       O  0.93498836  0.64539964  0.72805138    -0.66200
O1995       O  0.95223280  0.62945971  0.62809942    -1.12800
C1996       C  0.93468411  0.52994899  0.68713348     1.05400
O1997       O  0.97128466  0.63110025  0.74835912    -0.79400
O1998       O  0.99147087  0.59044985  0.71674432    -0.67000
Ni1999     Ni  0.92720473  0.63117346  0.58522642     1.34900
C2000       C  0.50523693  0.59662990  0.68245191     0.84100
O2001       O  0.94625471  0.67913416  0.66265138    -0.80000
O2002       O  0.92567108  0.66892958  0.60302998    -0.90200
C2003       C  0.95557428  0.64653347  0.75327114     0.83700
O2004       O  0.88712266  0.60433751  0.60620775    -0.68400
O2005       O  0.93319572  0.54292859  0.71788775    -0.87700
C2006       C  0.87652766  0.60696650  0.63755097     0.84500
C2007       C  0.93429809  0.68605413  0.63291101     1.06100
H2008       H  0.91246181  0.58075315  0.68686239     0.37900
O2009       O  0.93489675  0.59479666  0.68671596    -1.10400
O2010       O  0.99345874  0.60514540  0.65639245    -0.67000
Ni2011     Ni  0.94906070  0.58764505  0.64041811     1.26300
O2012       O  0.89518860  0.62063610  0.66610262    -0.67300
O2013       O  0.94322430  0.54528263  0.65562989    -0.79600
C2014       C  0.95247153  0.59127827  0.56181669     0.83900
O2015       O  0.96367637  0.58391196  0.59167872    -0.66700
Ni2016     Ni  0.95196868  0.58690159  0.73239239     1.27400
Ni2017     Ni  0.94097278  0.63731946  0.67643187     1.26100
H2018       H  0.97401370  0.64453682  0.62418147     0.38400
O2019       O  0.51792170  0.73571822  0.90415062    -0.81500
O2020       O  0.54102295  0.74374674  0.07821487    -0.66200
O2021       O  0.51736371  0.71280022  0.97744920    -1.12800
C2022       C  0.94622049  0.75528802  0.99438583     1.05400
O2023       O  0.99127130  0.71387095  0.09421722    -0.79400
O2024       O  0.93817311  0.69280238  0.04652114    -0.67000
Ni2025     Ni  0.54738961  0.72991784  0.93895517     1.34900
C2026       C  0.93308818  0.67357820  0.01925155     0.84100
O2027       O  0.56254962  0.71585914  0.03090997    -0.80000
O2028       O  0.57764582  0.72275337  0.97053480    -0.90200
C2029       C  0.52114916  0.72645819  0.10204812     0.83700
O2030       O  0.56696360  0.77539197  0.95165060    -0.68400
O2031       O  0.95269229  0.75554498  0.03004805    -0.87700
C2032       C  0.57446533  0.78973217  0.98352156     0.84500
C2033       C  0.57992022  0.71527473  0.00522548     1.06100
H2034       H  0.50919420  0.76567950  0.01591446     0.37900
O2035       O  0.99910717  0.74275730  0.02106785    -1.10400
O2036       O  0.95137405  0.68166368  0.99124711    -0.67000
Ni2037     Ni  0.98249109  0.72401611  0.97272858     1.26300
O2038       O  0.56342047  0.77402096  0.01398499    -0.67300
O2039       O  0.95146300  0.73872928  0.97025030    -0.79600
C2040       C  0.98915224  0.71535991  0.89675655     0.83900
O2041       O  0.96939851  0.70593967  0.92283767    -0.66700
Ni2042     Ni  0.97168322  0.73431635  0.06105611     1.27400
Ni2043     Ni  0.53141579  0.73012500  0.02691081     1.26100
H2044       H  0.50947668  0.68973033  0.97851189     0.38400
O2045       O  0.56506148  0.65636643  0.23644460    -0.81500
O2046       O  0.52808506  0.61430769  0.40281694    -0.66200
O2047       O  0.53766648  0.65117695  0.30378217    -1.12800
C2048       C  0.64083783  0.71199209  0.35610106     1.05400
O2049       O  0.54497605  0.66331278  0.42520168    -0.79400
O2050       O  0.58387072  0.72152495  0.39072028    -0.67000
Ni2051     Ni  0.52899522  0.62451377  0.26041994     1.34900
C2052       C  0.57662359  0.73097188  0.35949675     0.84100
O2053       O  0.99032293  0.60196544  0.34166307    -0.80000
O2054       O  0.99235600  0.59050348  0.28105875    -0.90200
C2055       C  0.52824274  0.63291552  0.42847282     0.83700
O2056       O  0.55413314  0.60403565  0.27728222    -0.68400
O2057       O  0.62888160  0.70246246  0.38840048    -0.87700
C2058       C  0.55616104  0.59173615  0.30909583     0.84500
C2059       C  0.97803357  0.58567319  0.31186062     1.06100
H2060       H  0.58784114  0.64797545  0.35984718     0.37900
O2061       O  0.57558669  0.65967596  0.36003528    -1.10400
O2062       O  0.56922115  0.71391806  0.32975524    -0.67000
Ni2063     Ni  0.58085846  0.68187822  0.31310990     1.26300
O2064       O  0.54511314  0.59739935  0.33875665    -0.67300
O2065       O  0.62458689  0.70957539  0.32517777    -0.79600
C2066       C  0.57058595  0.68553449  0.23514774     0.83900
O2067       O  0.58270619  0.70259152  0.26452330    -0.66700
Ni2068     Ni  0.58705249  0.68318216  0.40565626     1.27400
Ni2069     Ni  0.53269322  0.63065617  0.35199722     1.26100
H2070       H  0.52455685  0.66198163  0.30178384     0.38400
C2071       C  0.56068471  0.73876346  0.15638436    -0.26900
C2072       C  0.53280987  0.71659717  0.13735272    -0.15000
C2073       C  0.51777236  0.68456153  0.15062936     0.35600
C2074       C  0.53105239  0.67538678  0.18213585    -0.26400
C2075       C  0.55888359  0.69747104  0.20137547    -0.15600
C2076       C  0.57341989  0.72977561  0.18854899     0.36700
N2077       N  0.60140110  0.75380743  0.20696850    -0.89900
H2078       H  0.57257135  0.76338572  0.14630939     0.17800
H2079       H  0.51930193  0.65068940  0.19197512     0.17800
N2080       N  0.48949051  0.66119227  0.13155004    -0.88900
H2081       H  0.61870140  0.74592124  0.20792329     0.35200
H2082       H  0.59625745  0.75651663  0.23460001     0.40300
H2083       H  0.48113372  0.63885846  0.14517864     0.39900
H2084       H  0.49538300  0.65795391  0.10445705     0.34800
C2085       C  0.99443611  0.67977143  0.80322547    -0.26900
C2086       C  0.96330442  0.66674397  0.78805417    -0.15000
C2087       C  0.94057118  0.67091661  0.80843291     0.35600
C2088       C  0.94935890  0.68730199  0.84334484    -0.26400
C2089       C  0.98054394  0.69996115  0.85857370    -0.15600
C2090       C  0.50465453  0.69686788  0.83613625     0.36700
N2091       N  0.53701887  0.71005883  0.84987222    -0.89900
H2092       H  0.51364561  0.67949660  0.78464897     0.17800
H2093       H  0.93158980  0.68981897  0.85888259     0.17800
N2094       N  0.90822443  0.65769459  0.79530250    -0.88900
H2095       H  0.55106590  0.70737926  0.82986362     0.35200
H2096       H  0.53783053  0.69652474  0.87352640     0.40300
H2097       H  0.89952961  0.63290446  0.79178846     0.39900
H2098       H  0.90716129  0.66804694  0.76907740     0.34800
C2099       C  0.48839834  0.63481328  0.46945981    -0.26900
C2100       C  0.50688819  0.61987004  0.46066998    -0.15000
C2101       C  0.50539502  0.59398772  0.48364163     0.35600
C2102       C  0.98730391  0.58394085  0.51558689    -0.26400
C2103       C  0.97006233  0.59993724  0.52604567    -0.15600
C2104       C  0.97165050  0.62611412  0.50347612     0.36700
N2105       N  0.95491632  0.64356663  0.51356216    -0.89900
H2106       H  0.48954737  0.65472505  0.45206401     0.17800
H2107       H  0.98651855  0.56401870  0.53265431     0.17800
N2108       N  0.52429616  0.57824144  0.47680197    -0.88900
H2109       H  0.95776151  0.66139893  0.49347646     0.35200
H2110       H  0.96533705  0.65554451  0.53891502     0.40300
H2111       H  0.54797744  0.59554704  0.47715905     0.39900
H2112       H  0.51802043  0.56786541  0.44993527     0.34800
C2113       C  0.72728404  0.74720382  0.38630454    -0.26900
C2114       C  0.74086221  0.76444176  0.35368492    -0.15000
C2115       C  0.72226998  0.75963546  0.32002398     0.35600
C2116       C  0.68970134  0.74094660  0.32091631    -0.26400
C2117       C  0.67546821  0.72677884  0.35481920    -0.15600
C2118       C  0.69474913  0.72779820  0.38717365     0.36700
N2119       N  0.68140675  0.71012304  0.42110301    -0.89900
H2120       H  0.74193724  0.75036976  0.41181885     0.17800
H2121       H  0.67550642  0.73914812  0.29536861     0.17800
N2122       N  0.73589032  0.77573868  0.28564106    -0.88900
H2123       H  0.69892500  0.71457378  0.44234267     0.35200
H2124       H  0.67179797  0.68565180  0.41471334     0.40300
H2125       H  0.72525115  0.79020862  0.27715080     0.39900
H2126       H  0.73052560  0.75832242  0.26482117     0.34800
C2127       C  0.90414289  0.51173736  0.28430189    -0.26900
C2128       C  0.90065457  0.99456129  0.31327032    -0.15000
C2129       C  0.91579826  0.01072615  0.34720153     0.35600
C2130       C  0.93854790  0.54259960  0.34966916    -0.26400
C2131       C  0.94697691  0.55777594  0.31433092    -0.15600
C2132       C  0.92759088  0.54326834  0.28188451     0.36700
N2133       N  0.93141057  0.55945420  0.24608677    -0.89900
H2134       H  0.89232458  0.00063059  0.25343581     0.17800
H2135       H  0.45152401  0.55447476  0.37499725     0.17800
N2136       N  0.90883062  0.99446770  0.38321242    -0.88900
H2137       H  0.95236152  0.56269069  0.23448049     0.35200
H2138       H  0.93208057  0.58182320  0.25025500     0.40300
H2139       H  0.88543501  0.98856974  0.38855555     0.39900
H2140       H  0.92278787  0.00976354  0.40504019     0.34800
C2141       C  0.77173833  0.81648072  0.14126737    -0.26900
C2142       C  0.77287452  0.78709793  0.13956305    -0.15000
C2143       C  0.77831746  0.77309295  0.17324378     0.35600
C2144       C  0.78566443  0.79038509  0.20708875    -0.26400
C2145       C  0.78810086  0.82137665  0.20780462    -0.15600
C2146       C  0.77975416  0.83409448  0.17494156     0.36700
N2147       N  0.78050801  0.86521678  0.17424974    -0.89900
H2148       H  0.76775506  0.82737477  0.11545710     0.17800
H2149       H  0.79178640  0.78051764  0.23239713     0.17800
N2150       N  0.77866864  0.74248776  0.17356515    -0.88900
H2151       H  0.79855936  0.88018710  0.15673172     0.35200
H2152       H  0.78584769  0.87573647  0.20101695     0.40300
H2153       H  0.77203738  0.73164357  0.14698252     0.39900
H2154       H  0.76135521  0.72730012  0.19178626     0.34800
C2155       C  0.89271134  0.78424763  0.94449700    -0.26900
C2156       C  0.89645869  0.80795973  0.97048312    -0.15000
C2157       C  0.92393473  0.82180132  0.99396976     0.35600
C2158       C  0.94177399  0.80530708  0.99934006    -0.26400
C2159       C  0.93274731  0.77614923  0.98051663    -0.15600
C2160       C  0.90998423  0.76706896  0.95042510     0.36700
N2161       N  0.90199488  0.73868262  0.92880284    -0.96200
H2162       H  0.87226231  0.77456546  0.92505605     0.17800
H2163       H  0.96099714  0.81381941  0.02053371     0.17800
N2164       N  0.93110389  0.84935750  0.01695967    -0.88900
H2165       H  0.90466794  0.74523151  0.90022369     0.35200
H2166       H  0.87821260  0.72279965  0.93250081     0.40300
H2167       H  0.91531033  0.85867347  0.01003166     0.39900
H2168       H  0.95338309  0.86720673  0.00981616     0.34800
C2169       C  0.65610508  0.72138700  0.04550122    -0.26900
C2170       C  0.66234761  0.70513219  0.01692916    -0.15000
C2171       C  0.63791116  0.68474542  0.99209390     0.35600
C2172       C  0.60902128  0.68541948  0.99159241    -0.26400
C2173       C  0.60468138  0.70622312  0.01568722    -0.15600
C2174       C  0.62718199  0.72235439  0.04496506     0.36700
N2175       N  0.62213673  0.74258306  0.07089401    -0.89900
H2176       H  0.67509618  0.73686795  0.06480113     0.17800
H2177       H  0.59110829  0.67207639  0.97000211     0.17800
N2178       N  0.64353843  0.66591447  0.96497906    -0.88900
H2179       H  0.64195107  0.75433240  0.08909622     0.35200
H2180       H  0.60370681  0.72762295  0.08794563     0.40300
H2181       H  0.63931833  0.67298299  0.93789317     0.39900
H2182       H  0.62717193  0.64183716  0.96881710     0.34800
C2183       C  0.84037584  0.76352607  0.81407907    -0.26900
C2184       C  0.84336916  0.79103770  0.79431881    -0.15000
C2185       C  0.82584517  0.80685329  0.80465409     0.35600
C2186       C  0.80654579  0.79555382  0.83588622    -0.26400
C2187       C  0.80515144  0.76929994  0.85727546    -0.15600
C2188       C  0.82171315  0.75279214  0.84583617     0.36700
N2189       N  0.81969134  0.72522270  0.86656265    -0.89900
H2190       H  0.85326675  0.75093377  0.80551385     0.17800
H2191       H  0.79389147  0.80829918  0.84474887     0.17800
N2192       N  0.82751892  0.83409957  0.78315925    -0.88900
H2193       H  0.84251085  0.72977514  0.87576239     0.35200
H2194       H  0.81096392  0.70571658  0.84800206     0.40300
H2195       H  0.85033736  0.85288875  0.78714403     0.39900
H2196       H  0.81228993  0.84218687  0.79365125     0.34800
C2197       C  0.91763559  0.97644236  0.71636596    -0.26900
C2198       C  0.92774465  0.99441514  0.68275194    -0.15000
C2199       C  0.93191286  0.97940133  0.65077878     0.35600
C2200       C  0.92759555  0.94775259  0.65398032    -0.26400
C2201       C  0.91898702  0.93038848  0.68813636    -0.15600
C2202       C  0.91320980  0.94476208  0.71932943     0.36700
N2203       N  0.90313651  0.92756800  0.75421745    -0.89900
H2204       H  0.91366237  0.98714556  0.74103802     0.17800
H2205       H  0.93173238  0.93690449  0.62955969     0.17800
N2206       N  0.94137988  0.99635312  0.61545303    -0.88900
H2207       H  0.88154987  0.92673563  0.76035546     0.35200
H2208       H  0.91967323  0.94051463  0.77567770     0.40300
H2209       H  0.89769701  0.49262525  0.61983779     0.39900
H2210       H  0.94542551  0.98246947  0.59579083     0.34800
C2211       C  0.91094011  0.71437606  0.66689044    -0.26900
C2212       C  0.92562664  0.71240060  0.63448751    -0.15000
C2213       C  0.92545487  0.73056399  0.60208896     0.35600
C2214       C  0.90948409  0.74946508  0.60243703    -0.26400
C2215       C  0.89311895  0.75001683  0.63426383    -0.15600
C2216       C  0.89432403  0.73241876  0.66696991     0.36700
N2217       N  0.87793627  0.73179424  0.70011539    -0.89900
H2218       H  0.91035995  0.69993737  0.69161977     0.17800
H2219       H  0.90933121  0.76327008  0.57742556     0.17800
N2220       N  0.94085291  0.72911969  0.56876896    -0.88900
H2221       H  0.89436367  0.74012462  0.72294526     0.35200
H2222       H  0.86180879  0.70791339  0.70564833     0.40300
H2223       H  0.96499053  0.73867762  0.57574661     0.39900
H2224       H  0.93837932  0.74371838  0.54732138     0.34800
C2225       C  0.90831433  0.90679884  0.52973604    -0.26900
C2226       C  0.91530501  0.88069219  0.53169438    -0.15000
C2227       C  0.92009922  0.86819090  0.49809837     0.35600
C2228       C  0.91318160  0.87885960  0.46328202    -0.26400
C2229       C  0.90037569  0.90055044  0.46175010    -0.15600
C2230       C  0.90012552  0.91640348  0.49492645     0.36700
N2231       N  0.88915803  0.94028743  0.49423461    -0.89900
H2232       H  0.90477123  0.91657783  0.55550539     0.17800
H2233       H  0.91344236  0.86663220  0.43776535     0.17800
N2234       N  0.92818934  0.84207865  0.49844482    -0.88900
H2235       H  0.86582374  0.93000275  0.48351933     0.35200
H2236       H  0.90299248  0.95866111  0.47578651     0.40300
H2237       H  0.93311243  0.83664073  0.52602999     0.39900
H2238       H  0.94922419  0.84998879  0.48432279     0.34800
C2239       C  0.73627131  0.92041692  0.38992840    -0.26900
C2240       C  0.71822146  0.91748958  0.35631362    -0.15000
C2241       C  0.72279616  0.90201301  0.32507055     0.35600
C2242       C  0.74355552  0.88840353  0.32880780    -0.26400
C2243       C  0.76038277  0.88965647  0.36310331    -0.15600
C2244       C  0.75735074  0.90712952  0.39363381     0.36700
N2245       N  0.77461930  0.91137196  0.42907417    -0.89900
H2246       H  0.73322583  0.93232988  0.41413035     0.17800
H2247       H  0.74583027  0.87597520  0.30462148     0.17800
N2248       N  0.70547936  0.89808795  0.28973824    -0.88900
H2249       H  0.79876968  0.92333323  0.42427598     0.35200
H2250       H  0.76874809  0.88882490  0.44121022     0.40300
H2251       H  0.71071410  0.92083291  0.27863104     0.39900
H2252       H  0.68136180  0.88561694  0.29455116     0.34800
C2253       C  0.98256153  0.89626408  0.32817343    -0.26900
C2254       C  0.50266976  0.91983763  0.30300119    -0.15000
C2255       C  0.98876699  0.92736875  0.27031399     0.35600
C2256       C  0.95632227  0.91832552  0.26908357    -0.26400
C2257       C  0.93679642  0.89899534  0.29756597    -0.15600
C2258       C  0.95001987  0.88705393  0.32691893     0.36700
N2259       N  0.93051850  0.86588435  0.35555280    -0.89900
H2260       H  0.99274614  0.88739047  0.35074074     0.17800
H2261       H  0.94663068  0.92790175  0.24674937     0.17800
N2262       N  0.50893008  0.95099236  0.24367076    -0.88900
H2263       H  0.94396979  0.85971861  0.37521285     0.35200
H2264       H  0.91448198  0.84455165  0.34222432     0.40300
H2265       H  0.52460811  0.97272630  0.25652962     0.39900
H2266       H  0.99512140  0.95444310  0.22175953     0.34800
C2267       C  0.58501683  0.56581674  0.27728528    -0.26900
C2268       C  0.57150450  0.56952686  0.31033992    -0.15000
C2269       C  0.57205675  0.55106450  0.34258961     0.35600
C2270       C  0.58412933  0.52851764  0.34017571    -0.26400
C2271       C  0.59570171  0.52349148  0.30633953    -0.15600
C2272       C  0.59661563  0.54317150  0.27479138     0.36700
N2273       N  0.61543191  0.04823480  0.24431969    -0.89900
H2274       H  0.58579851  0.58003283  0.25231502     0.17800
H2275       H  0.58302817  0.51359277  0.36456874     0.17800
N2276       N  0.55946134  0.55430075  0.37739299    -0.88900
H2277       H  0.63786294  0.05048051  0.25157709     0.35200
H2278       H  0.60207723  0.02651739  0.23020876     0.40300
H2279       H  0.57429169  0.57725140  0.38800617     0.39900
H2280       H  0.56025664  0.53799800  0.39769415     0.34800
C2281       C  0.58234445  0.81304990  0.38423743    -0.26900
C2282       C  0.59767319  0.83198473  0.35273298    -0.15000
C2283       C  0.60192794  0.81603100  0.32156451     0.35600
C2284       C  0.59303055  0.78273164  0.32394862    -0.26400
C2285       C  0.57986063  0.76446463  0.35655074    -0.15600
C2286       C  0.57367675  0.77995085  0.38656872     0.36700
N2287       N  0.55853633  0.76279950  0.41981945    -0.89900
H2288       H  0.57802805  0.82425211  0.40818953     0.17800
H2289       H  0.59790565  0.77126245  0.30073044     0.17800
N2290       N  0.61642769  0.83370120  0.28811930    -0.88900
H2291       H  0.57311628  0.75462484  0.43428947     0.35200
H2292       H  0.53733259  0.74301395  0.41152931     0.40300
H2293       H  0.60084439  0.84128125  0.27496214     0.39900
H2294       H  0.61923900  0.81878108  0.26875226     0.34800
C2295       C  0.68806201  0.98246588  0.19376863    -0.26900
C2296       C  0.67095319  0.95038135  0.20564815    -0.15000
C2297       C  0.67385619  0.92616407  0.18540119     0.35600
C2298       C  0.69246478  0.93454589  0.15292194    -0.26400
C2299       C  0.70934572  0.96675371  0.14088606    -0.15600
C2300       C  0.70723829  0.99090439  0.16237564     0.36700
N2301       N  0.72303041  0.02424441  0.15208089    -0.89900
H2302       H  0.68632068  0.00139887  0.20895114     0.17800
H2303       H  0.69360676  0.91577930  0.13672678     0.17800
N2304       N  0.65670302  0.89302954  0.19656527    -0.88900
H2305       H  0.71590044  0.02689913  0.12435653     0.35200
H2306       H  0.74736854  0.03199915  0.15362345     0.40300
H2307       H  0.66641206  0.89030210  0.22269189     0.39900
H2308       H  0.66008892  0.87815261  0.17768961     0.34800
C2309       C  0.63730913  0.87608630  0.01591548    -0.26900
C2310       C  0.64503946  0.89342729  0.98144092    -0.15000
C2311       C  0.62697132  0.87666960  0.94855894     0.35600
C2312       C  0.60397576  0.84398384  0.95057356    -0.26400
C2313       C  0.59740777  0.82601875  0.98458595    -0.15600
C2314       C  0.61412138  0.84324844  0.01791048     0.36700
N2315       N  0.60899016  0.82798766  0.05429532    -0.89900
H2316       H  0.65051043  0.88767129  0.04161583     0.17800
H2317       H  0.59140803  0.83232544  0.92460485     0.17800
N2318       N  0.63103801  0.89209474  0.91228292    -0.88900
H2319       H  0.61384436  0.80836892  0.05332227     0.35200
H2320       H  0.58535164  0.81986495  0.06055564     0.40300
H2321       H  0.65316826  0.89715369  0.90263085     0.39900
H2322       H  0.62939702  0.91349151  0.91500349     0.34800
C2323       C  0.88648609  0.62588757  0.98694861    -0.26900
C2324       C  0.90364726  0.64111628  0.02038834    -0.15000
C2325       C  0.89032855  0.62670393  0.05516071     0.35600
C2326       C  0.86005587  0.59972430  0.05596563    -0.26400
C2327       C  0.84172889  0.58578024  0.02267882    -0.15600
C2328       C  0.85606434  0.59871216  0.98775499     0.36700
N2329       N  0.83974238  0.58471194  0.95276444    -0.89900
H2330       H  0.89604373  0.63596366  0.95981718     0.17800
H2331       H  0.85039384  0.59044752  0.08328066     0.17800
N2332       N  0.90742397  0.63954901  0.09017652    -0.88900
H2333       H  0.85384180  0.57737015  0.93811116     0.35200
H2334       H  0.83726534  0.60255322  0.93666484     0.40300
H2335       H  0.89362497  0.64607802  0.10657196     0.39900
H2336       H  0.91055626  0.62130957  0.10451591     0.34800
C2337       C  0.75567104  0.63636703  0.04815636    -0.26900
C2338       C  0.75887708  0.62020489  0.01708181    -0.15000
C2339       C  0.77610887  0.63849901  0.98609941     0.35600
C2340       C  0.79091663  0.67216029  0.98778637    -0.26400
C2341       C  0.78909001  0.68838893  0.01978912    -0.15600
C2342       C  0.77005860  0.67012521  0.04965897     0.36700
N2343       N  0.76531722  0.68574216  0.08146240    -0.89900
H2344       H  0.74242859  0.62247871  0.07190942     0.17800
H2345       H  0.80465124  0.68568506  0.96415387     0.17800
N2346       N  0.78048828  0.62372044  0.95344542    -0.88900
H2347       H  0.75136746  0.66882660  0.10124671     0.35200
H2348       H  0.75251164  0.69773316  0.07149961     0.40300
H2349       H  0.75837192  0.60901199  0.94077897     0.39900
H2350       H  0.79140525  0.60956926  0.96209142     0.34800
C2351       C  0.76383774  0.88838376  0.96201597    -0.26900
C2352       C  0.74798432  0.89417932  0.99102555    -0.15000
C2353       C  0.73251335  0.86977533  0.01787135     0.35600
C2354       C  0.73231084  0.83993776  0.01437441    -0.26400
C2355       C  0.74653015  0.83363318  0.98397937    -0.15600
C2356       C  0.76285101  0.85842886  0.95780190     0.36700
N2357       N  0.77886801  0.85418162  0.92683804    -0.89900
H2358       H  0.77614960  0.90693343  0.94133785     0.17800
H2359       H  0.71997974  0.82122072  0.03488224     0.17800
N2360       N  0.71575295  0.87450706  0.04764077    -0.88900
H2361       H  0.76231620  0.83703099  0.90835168     0.35200
H2362       H  0.79489726  0.84614757  0.93742363     0.40300
H2363       H  0.72510405  0.87060918  0.07347554     0.39900
H2364       H  0.69212051  0.85718288  0.04490159     0.34800
C2365       C  0.68161871  0.53838594  0.82768784    -0.26900
C2366       C  0.70521294  0.56245033  0.80632316    -0.15000
C2367       C  0.73684205  0.57496656  0.82031974     0.35600
C2368       C  0.74418387  0.56277850  0.85448254    -0.26400
C2369       C  0.72053170  0.53756760  0.87465525    -0.15600
C2370       C  0.68881655  0.52580055  0.86123979     0.36700
N2371       N  0.66383773  0.50096736  0.88177185    -0.89900
H2372       H  0.65719345  0.52846609  0.81757602     0.17800
H2373       H  0.76859401  0.57236738  0.86458547     0.17800
N2374       N  0.76155628  0.60006127  0.80016230    -0.88900
H2375       H  0.64191486  0.49462615  0.86797773     0.35200
H2376       H  0.66323703  0.51046778  0.90797779     0.40300
H2377       H  0.77787721  0.59195352  0.79374860     0.39900
H2378       H  0.77298285  0.61978561  0.81824146     0.34800
C2379       C  0.78896402  0.58090864  0.60987811    -0.26900
C2380       C  0.77560905  0.57988848  0.64479538    -0.15000
C2381       C  0.79553690  0.58551430  0.67796087     0.35600
C2382       C  0.82766551  0.59289539  0.67516262    -0.26400
C2383       C  0.84121812  0.59504024  0.63995241    -0.15600
C2384       C  0.82101163  0.58838086  0.60691238     0.36700
N2385       N  0.83317786  0.59063322  0.56994991    -0.89900
H2386       H  0.77439035  0.57666801  0.58413334     0.17800
H2387       H  0.84238305  0.59793170  0.70089090     0.17800
N2388       N  0.78443934  0.58540755  0.71485171    -0.88900
H2389       H  0.81617130  0.58813556  0.54873050     0.35200
H2390       H  0.83783226  0.57103148  0.56704895     0.40300
H2391       H  0.76569326  0.56275038  0.71989793     0.39900
H2392       H  0.77646994  0.60281692  0.71556970     0.34800
C2393       C  0.55225558  0.59417225  0.71431577    -0.26900
C2394       C  0.53486433  0.59255275  0.68043972    -0.15000
C2395       C  0.54281838  0.58136531  0.64768381     0.35600
C2396       C  0.56627118  0.57047110  0.65029581    -0.26400
C2397       C  0.58206349  0.56998374  0.68495918    -0.15600
C2398       C  0.57557810  0.58342063  0.71702816     0.36700
N2399       N  0.59215350  0.58564233  0.75277387    -0.89900
H2400       H  0.54685857  0.60302174  0.73955805     0.17800
H2401       H  0.57119622  0.56095746  0.62527549     0.17800
N2402       N  0.02725030  0.58212333  0.61502172    -0.88900
H2403       H  0.58374612  0.59478245  0.77369464     0.35200
H2404       H  0.61573946  0.60237995  0.74953501     0.40300
H2405       H  0.00427052  0.56356357  0.61684538     0.39900
H2406       H  0.03735572  0.57579301  0.59322556     0.34800
C2407       C  0.55313579  0.93641389  0.64196685    -0.26900
C2408       C  0.57162752  0.94387676  0.67576722    -0.15000
C2409       C  0.56060002  0.92361876  0.70751822     0.35600
C2410       C  0.52985912  0.89871096  0.70648880    -0.26400
C2411       C  0.00981587  0.89171991  0.67307135    -0.15600
C2412       C  0.52216916  0.91163653  0.64102089     0.36700
N2413       N  0.00059135  0.90753802  0.60788063    -0.89900
H2414       H  0.56377944  0.44967512  0.62170158     0.17800
H2415       H  0.52096962  0.88445401  0.73183062     0.17800
N2416       N  0.58008668  0.92912913  0.74138721    -0.88900
H2417       H  0.51544464  0.39950017  0.59029362     0.35200
H2418       H  0.98449821  0.91547935  0.61585494     0.40300
H2419       H  0.58227044  0.90823007  0.74757738     0.39900
H2420       H  0.56853669  0.93306997  0.76353145     0.34800
C2421       C  0.75329023  0.69158394  0.69170944    -0.26900
C2422       C  0.73632835  0.67750205  0.65799649    -0.15000
C2423       C  0.73338902  0.69741915  0.62892364     0.35600
C2424       C  0.75205654  0.73055754  0.63119837    -0.26400
C2425       C  0.77340732  0.74391163  0.66188625    -0.15600
C2426       C  0.77168838  0.72493165  0.69413509     0.36700
N2427       N  0.79106376  0.73905531  0.72754522    -0.89900
H2428       H  0.75409415  0.67658977  0.71518356     0.17800
H2429       H  0.75250583  0.74543781  0.60696781     0.17800
N2430       N  0.71271736  0.68420249  0.59629264    -0.88900
H2431       H  0.78784151  0.72148609  0.74814444     0.35200
H2432       H  0.78331697  0.75450316  0.73889421     0.40300
H2433       H  0.72626031  0.69136082  0.57225083     0.39900
H2434       H  0.69694950  0.69406717  0.59449575     0.34800
C2435       C  0.59342576  0.98071675  0.48223939    -0.26900
C2436       C  0.61331585  0.97070594  0.46484739    -0.15000
C2437       C  0.64411947  0.98075515  0.48057555     0.35600
C2438       C  0.65510633  0.51318318  0.50443119    -0.26400
C2439       C  0.63376610  0.51103730  0.53186151    -0.15600
C2440       C  0.60361416  0.99988298  0.51545033     0.36700
N2441       N  0.58260037  0.00934590  0.53296844    -0.89900
H2442       H  0.56981981  0.97328167  0.47015893     0.17800
H2443       H  0.68004910  0.52896074  0.50931352     0.17800
N2444       N  0.66536563  0.97175640  0.46304355    -0.88900
H2445       H  0.56064291  0.99967434  0.51838489     0.35200
H2446       H  0.57809619  0.51134061  0.54944797     0.40300
H2447       H  0.67257813  0.95932891  0.48302203     0.39900
H2448       H  0.69025837  0.51546934  0.45203825     0.34800
loop_ 
_geom_bond_atom_site_label_1 
_geom_bond_atom_site_label_2 
_geom_bond_distance 
_geom_bond_site_symmetry_2 
_ccdc_geom_bond_type 
O1           Ni7   1.916       .  S
O1           C22   1.266       .  A
O2          Ni25   1.920       .  S
O2           C11   1.273       .  A
O3           Ni7   1.915       .  S
O3          Ni25   1.917       .  S
O3          Ni19   1.912       .  S
O3           H26   0.967       .  S
C4           O21   1.282       .  A
C4           O13   1.282       .  A
C4          C586   1.473       .  S
O5          Ni24   1.950       .  S
O5           C11   1.281       .  A
O6          Ni24   1.926       .  S
O6            C8   1.271       .  A
Ni7          O12   1.915       .  S
Ni7         O622   1.916   1_545  S
C8           O18   1.275       .  A
C8          C544   1.504       .  S
O9         Ni637   1.895       .  S
O9           C15   1.272       .  A
O10        Ni619   1.912       .  S
O10          C15   1.274       .  A
C11         C603   1.504       .  S
O12          C14   1.270       .  A
O13         Ni24   1.915       .  S
C14          O20   1.283       .  A
C14         C561   1.523       .  S
C15         C572   1.463       .  S
H16          O17   0.966       .  S
O17         Ni25   1.884       .  S
O17         Ni19   1.901       .  S
O17         Ni24   1.888       .  S
O18         Ni19   1.943       .  S
Ni19         O23   1.930       .  S
Ni19         O21   1.908       .  S
O20         Ni25   1.976       .  S
C22          O23   1.270       .  A
C22         C530   1.496       .  S
Ni25        O621   1.892   1_545  S
O27         Ni33   1.928   1_565  S
O27         C660   1.273       .  A
O28         Ni51   1.913       .  S
O28          C37   1.272       .  A
O29         Ni33   1.918       .  S
O29         Ni51   1.910   1_554  S
O29        Ni657   1.940   1_545  S
O29          H52   0.966       .  S
C30          O47   1.286   1_556  A
C30          O39   1.282       .  A
C30         C516   1.479       .  S
O31         Ni50   1.942       .  S
O31         C649   1.279       .  A
O32         Ni50   1.926       .  S
O32          C34   1.270       .  A
Ni33         O36   1.923       .  S
Ni33         O38   1.940       .  S
C34          O44   1.287   1_556  A
C34         C474   1.538       .  S
O35         Ni51   1.925       .  S
O35          C41   1.279   1_556  A
O36          C41   1.276       .  A
C37         O643   1.279   1_545  A
C37         C533   1.482       .  S
O38          C40   1.280       .  A
O39         Ni50   1.910       .  S
C40          O46   1.281   1_554  A
C40         C491   1.533       .  S
C41         C502   1.488       .  S
H42          O43   0.966       .  S
O43         Ni45   1.903   1_556  S
O43         Ni50   1.886       .  S
O43        Ni663   1.907       .  S
O44         Ni45   1.975       .  S
Ni45         O49   1.932       .  S
Ni45         O47   1.930       .  S
Ni45        O641   1.941       .  S
O46         Ni51   1.970       .  S
C48          O49   1.274       .  A
C48         O639   1.276       .  A
C48         C463   1.506       .  S
Ni51        O655   1.913   1_545  S
O53         Ni59   1.933       .  S
O53          C74   1.273       .  A
O54         Ni77   1.932       .  S
O54          C63   1.277       .  A
O55         Ni59   1.911       .  S
O55         Ni77   1.913       .  S
O55         Ni71   1.925       .  S
O55          H78   0.966       .  S
C56          O73   1.293       .  A
C56          O65   1.281       .  A
C56         C418   1.485       .  S
O57         Ni76   1.944       .  S
O57          C63   1.279       .  A
O58         Ni76   1.921       .  S
O58          C60   1.269       .  A
Ni59         O62   1.934       .  S
Ni59         O64   1.923       .  S
C60          O70   1.274       .  A
C60        C1047   1.503       .  S
O61         Ni77   1.906       .  S
O61          C67   1.273       .  A
O62          C67   1.277       .  A
C63         C460   1.502       .  S
O64          C66   1.276       .  A
O65         Ni76   1.911       .  S
C66          O72   1.281       .  A
C66         C446   1.511       .  S
C67         C404   1.477       .  S
H68          O69   0.966       .  S
O69         Ni77   1.897       .  S
O69         Ni71   1.898       .  S
O69         Ni76   1.884       .  S
O70         Ni71   1.935       .  S
Ni71         O75   1.941       .  S
Ni71         O73   1.951       .  S
O72         Ni77   1.960       .  S
C74          O75   1.277       .  A
C74         C600   1.509       .  S
O79         Ni85   1.901       .  S
O79         C100   1.266       .  A
O80        Ni103   1.892       .  S
O80          C89   1.262       .  A
O81         Ni85   1.911       .  S
O81        Ni103   1.905       .  S
O81         Ni97   1.926       .  S
O81         H104   0.966       .  S
C82          O99   1.268       .  A
C82          O91   1.280       .  A
C82         C575   1.467       .  S
O83        Ni102   1.937       .  S
O83          C89   1.273       .  A
O84        Ni102   1.903       .  S
O84          C86   1.266       .  A
Ni85         O88   1.912       .  S
Ni85         O90   1.916       .  S
C86          O96   1.265       .  A
C86         C365   1.478       .  S
O87        Ni103   1.898       .  S
O87          C93   1.261       .  A
O88          C93   1.268       .  A
C89         C348   1.464       .  S
O90          C92   1.278       .  A
O91        Ni102   1.930       .  S
C92          O98   1.278       .  A
C92         C379   1.486       .  S
C93         C589   1.459       .  S
H94          O95   0.965       .  S
O95        Ni103   1.883       .  S
O95         Ni97   1.898       .  S
O95        Ni102   1.902       .  S
O96         Ni97   1.899       .  S
Ni97        O101   1.917       .  S
Ni97         O99   1.884       .  S
O98        Ni103   1.939       .  S
C100        O101   1.266       .  A
C100        C390   1.466       .  S
O105       Ni111   1.903       .  S
O105        C126   1.267       .  A
O106       Ni129   1.883       .  S
O106        C115   1.258       .  A
O107       Ni111   1.919       .  S
O107       Ni129   1.903   1_554  S
O107       Ni123   1.916       .  S
O107        H130   0.967       .  S
C108        O125   1.268       .  A
C108        O117   1.276   1_554  A
C108        C334   1.453       .  S
O109       Ni128   1.942       .  S
O109        C115   1.272       .  A
O110       Ni128   1.904       .  S
O110        C112   1.268       .  A
Ni111       O114   1.920       .  S
Ni111       O116   1.913       .  S
C112        O122   1.269   1_556  A
C112        C519   1.476       .  S
O113       Ni129   1.884       .  S
O113        C119   1.254       .  A
O114        C119   1.272   1_554  A
C115        C351   1.475       .  S
O116        C118   1.272       .  A
O117       Ni128   1.917       .  S
C118        O124   1.276   1_554  A
C118        C505   1.495       .  S
C119        C320   1.449       .  S
H120        O121   0.964       .  S
O121       Ni129   1.885       .  S
O121       Ni123   1.918   1_556  S
O121       Ni128   1.906       .  S
O122       Ni123   1.917       .  S
Ni123       O127   1.923       .  S
Ni123       O125   1.890       .  S
O124       Ni129   1.945       .  S
C126        O127   1.271       .  A
C126        C306   1.468       .  S
O131       Ni137   1.925       .  S
O131        C152   1.271       .  A
O132       Ni155   1.903       .  S
O132        C141   1.266       .  A
O133       Ni137   1.909       .  S
O133       Ni155   1.908       .  S
O133       Ni149   1.908       .  S
O133        H156   0.966       .  S
C134        O151   1.273       .  A
C134        O143   1.277       .  A
C134        C292   1.471       .  S
O135       Ni154   1.932       .  S
O135        C141   1.275       .  A
O136       Ni154   1.925       .  S
O136        C138   1.273       .  A
Ni137       O140   1.922       .  S
Ni137       O142   1.912       .  S
C138        O148   1.265       .  A
C138        C421   1.493       .  S
O139       Ni155   1.887       .  S
O139        C145   1.263       .  A
O140        C145   1.273       .  A
C141        C309   1.471       .  S
O142        C144   1.272       .  A
O143       Ni154   1.910       .  S
C144        O150   1.279       .  A
C144        C407   1.495       .  S
C145        C278   1.457       .  S
H146        O147   0.965       .  S
O147       Ni155   1.883       .  S
O147       Ni149   1.891       .  S
O147       Ni154   1.894       .  S
O148       Ni149   1.905       .  S
Ni149       O153   1.904       .  S
Ni149       O151   1.896       .  S
O150       Ni155   1.949       .  S
C152        O153   1.265       .  A
C152        C393   1.470       .  S
O157       Ni163   1.914       .  S
O157        C178   1.268       .  A
O158       Ni181   1.927       .  S
O158        C167   1.276       .  A
O159       Ni163   1.910       .  S
O159       Ni181   1.907       .  S
O159       Ni175   1.927       .  S
O159        H182   0.967       .  S
C160        O177   1.283       .  A
C160        O169   1.282       .  A
C160        C974   1.482   1_545  S
O161       Ni180   1.938       .  S
O161        C167   1.278       .  A
O162       Ni180   1.925       .  S
O162       C1388   1.272       .  A
Ni163       O166   1.922       .  S
Ni163       O168   1.920       .  S
C164       O1386   1.272   1_455  A
C164       O1398   1.278   1_455  A
C164        C558   1.515       .  S
O165       Ni181   1.914       .  S
O165        C171   1.278       .  A
O166        C171   1.276       .  A
C167        C250   1.494       .  S
O168        C170   1.272       .  A
O169       Ni180   1.914       .  S
C170        O176   1.281       .  A
C170        C547   1.511       .  S
C171        C376   1.477       .  S
H172        O173   0.966       .  S
O173       Ni181   1.904       .  S
O173       Ni175   1.895       .  S
O173       Ni180   1.881       .  S
O174       Ni175   1.948       .  S
O174       C1388   1.278       .  A
Ni175       O179   1.924       .  S
Ni175       O177   1.925       .  S
O176       Ni181   1.964       .  S
C178        O179   1.268       .  A
C178        C267   1.487       .  S
O183       Ni189   1.927       .  S
O183       C1428   1.274   1_455  A
O184       Ni207   1.903       .  S
O184        C193   1.267       .  A
O185       Ni189   1.909       .  S
O185       Ni207   1.908   1_556  S
O185      Ni1425   1.907   1_455  S
O185        H208   0.966       .  S
C186        O203   1.275       .  A
C186        O195   1.284   1_556  A
C186        C323   1.460       .  S
O187       Ni206   1.953       .  S
O187       C1417   1.280       .  A
O188       Ni206   1.924       .  S
O188        C190   1.272       .  A
Ni189       O192   1.925       .  S
Ni189       O194   1.946       .  S
C190        O200   1.287   1_554  A
C190        C488   1.531       .  S
O191       Ni207   1.882       .  S
O191        C197   1.267       .  A
O192        C197   1.279   1_556  A
C193       O1411   1.280   1_455  A
C193        C236   1.490       .  S
O194        C196   1.277       .  A
O195       Ni206   1.915       .  S
C196        O202   1.281   1_556  A
C196        C477   1.542       .  S
C197        C337   1.455       .  S
H198       O1423   0.966   1_455  S
O199       Ni201   1.905   1_554  S
O199       Ni206   1.883       .  S
O199      Ni1431   1.879       .  S
O199       H1422   0.966       .  S
O200       Ni201   1.983       .  S
Ni201       O205   1.927       .  S
Ni201       O203   1.898       .  S
Ni201      O1409   1.904       .  S
O202       Ni207   1.977       .  S
C204        O205   1.274       .  A
C204       O1407   1.274       .  A
C204        C253   1.503       .  S
Ni207      O1423   1.878   1_455  S
O209       Ni215   1.902       .  S
O209        C230   1.263       .  A
O210       Ni233   1.920       .  S
O210        C219   1.271       .  A
O211       Ni215   1.908       .  S
O211       Ni233   1.905       .  S
O211       Ni227   1.913       .  S
O211        H234   0.966       .  S
C212        O229   1.285       .  A
C212        O221   1.279       .  A
C212        C281   1.474       .  S
O213       Ni232   1.938       .  S
O213        C219   1.277       .  A
O214       Ni232   1.922       .  S
O214        C216   1.269       .  A
Ni215       O220   1.909       .  S
Ni215      O1442   1.918   1_455  S
C216        O226   1.273       .  A
C216        C449   1.506       .  S
O217      Ni1457   1.888       .  S
O217        C223   1.270       .  A
O218      Ni1439   1.922       .  S
O218        C223   1.275       .  A
C219        C264   1.488       .  S
O220        C222   1.269       .  A
O221       Ni232   1.904       .  S
C222        O228   1.281       .  A
C222        C432   1.516       .  S
C223        C295   1.468       .  S
H224        O225   0.966       .  S
O225       Ni233   1.882       .  S
O225       Ni227   1.899       .  S
O225       Ni232   1.885       .  S
O226       Ni227   1.937       .  S
Ni227       O231   1.937       .  S
Ni227       O229   1.914       .  S
O228       Ni233   1.971       .  S
C230        O231   1.270       .  A
C230        C239   1.494       .  S
Ni233      O1441   1.882   1_455  S
C235        C236   1.409       .  A
C235        C240   1.407       .  A
C235        H242   1.084       .  S
C236        C237   1.412       .  A
C237        C238   1.407       .  A
C237        N244   1.439   1_455  S
C238        C239   1.409       .  A
C238        H243   1.084       .  S
C239        C240   1.415       .  A
C240        N241   1.432       .  S
N241        H245   1.046       .  S
N241        H246   1.044       .  S
N244        H247   1.045       .  S
N244        H248   1.046       .  S
C249        C250   1.403       .  A
C249       C1478   1.410       .  A
C249       H1480   1.084       .  S
C250        C251   1.416       .  A
C251        C252   1.409       .  A
C251        N258   1.432       .  S
C252        C253   1.410       .  A
C252        H257   1.084       .  S
C253       C1478   1.420       .  A
C254       C1473   1.410   1_455  A
C254       C1477   1.416   1_455  A
C254        N255   1.439       .  S
N255        H259   1.046       .  S
N255        H260   1.046       .  S
H256       C1473   1.084   1_455  S
N258        H261   1.046       .  S
N258        H262   1.045       .  S
C263        C264   1.401   1_655  A
C263       C1492   1.406       .  A
C263        H270   1.084       .  S
C264        C265   1.417       .  A
C265       C1490   1.409   1_455  A
C265        N272   1.432       .  S
C266        C267   1.405       .  A
C266       C1489   1.407       .  A
C266        H271   1.084       .  S
C267        C268   1.416       .  A
C268       C1487   1.404       .  A
C268        N269   1.439       .  S
N269        H273   1.046       .  S
N269        H274   1.046       .  S
N272        H275   1.046       .  S
N272        H276   1.045       .  S
C277        C278   1.398       .  A
C277        C282   1.397       .  A
C277        H284   1.084       .  S
C278        C279   1.406       .  A
C279        C280   1.392       .  A
C279        N286   1.432       .  S
C280        C281   1.403       .  A
C280        H285   1.084       .  S
C281        C282   1.420       .  A
C282        N283   1.439       .  S
N283        H287   1.046       .  S
N283        H288   1.046       .  S
N286        H289   1.046       .  S
N286        H290   1.045       .  S
C291        C296   1.389       .  A
C291        C904   1.405   1_545  A
C291        H910   1.084       .  S
C292        C293   1.414       .  A
C292        C903   1.404       .  A
C293        C906   1.396       .  A
C293        N300   1.439       .  S
C294        C295   1.404       .  A
C294        C905   1.398       .  A
C294       H1523   1.084       .  S
C295        C296   1.414       .  A
C296        N297   1.434       .  S
N297        H301   1.043       .  S
N297        H302   1.046       .  S
H298        C903   1.084       .  S
H299       C1518   1.084       .  S
N300        H303   1.046       .  S
N300        H304   1.046       .  S
C305        C306   1.404       .  A
C305        C310   1.400       .  A
C305        H312   1.085       .  S
C306        C307   1.415       .  A
C307        C308   1.402       .  A
C307        N314   1.438       .  S
C308        C309   1.400       .  A
C308        H313   1.084       .  S
C309        C310   1.410       .  A
C310        N311   1.433       .  S
N311        H315   1.045       .  S
N311        H316   1.046       .  S
N314        H317   1.045       .  S
N314        H318   1.046       .  S
C319        C320   1.401       .  A
C319        C324   1.393       .  A
C319        H326   1.084       .  S
C320        C321   1.403       .  A
C321        C322   1.389   1_556  A
C321        N328   1.436   1_556  S
C322        C323   1.405   1_554  A
C322        H327   1.084       .  S
C323        C324   1.413       .  A
C324        N325   1.433       .  S
N325        H329   1.046       .  S
N325        H330   1.045       .  S
N328        H331   1.046       .  S
N328        H332   1.046       .  S
C333        C334   1.401       .  A
C333        C338   1.400       .  A
C333        H340   1.084       .  S
C334        C335   1.404   1_554  A
C335        C336   1.392       .  A
C335        N342   1.433       .  S
C336        C337   1.400   1_556  A
C336        H341   1.084       .  S
C337        C338   1.409       .  A
C338        N339   1.438       .  S
N339        H343   1.046       .  S
N339        H344   1.045       .  S
N342        H345   1.046       .  S
N342        H346   1.046       .  S
C347        C348   1.398       .  A
C347        C352   1.403       .  A
C347        H354   1.084       .  S
C348        C349   1.407       .  A
C349        C350   1.401       .  A
C349        N356   1.438       .  S
C350        C351   1.403       .  A
C350        H355   1.084       .  S
C351        C352   1.422       .  A
C352        N353   1.440       .  S
N353        H357   1.046       .  S
N353        H358   1.043       .  S
N356        H359   1.045       .  S
N356        H360   1.046       .  S
C361        C362   1.409       .  A
C361        C366   1.398       .  A
C361        H368   1.083       .  S
C362        C772   1.478       .  S
C362        C363   1.411       .  A
C363        C364   1.397       .  A
C363        N370   1.439       .  S
C364        C365   1.409       .  A
C364        H369   1.083       .  S
C365        C366   1.411       .  A
C366        N367   1.439       .  S
N367        H371   1.046       .  S
N367        H372   1.046       .  S
N370        H374   1.046       .  S
N370        H985   1.046       .  S
H373        N982   1.045       .  S
C375        C376   1.400       .  A
C375        C380   1.399       .  A
C375        H382   1.084       .  S
C376        C377   1.414       .  A
C377        C378   1.405       .  A
C377        N384   1.438       .  S
C378        C379   1.405       .  A
C378        H383   1.083       .  S
C379        C380   1.418       .  A
C380        N381   1.433       .  S
N381        H385   1.046       .  S
N381        H386   1.046       .  S
N384        H387   1.046       .  S
N384        H388   1.046       .  S
C389        C390   1.404       .  A
C389        C394   1.400       .  A
C389        H396   1.085       .  S
C390        C391   1.411       .  A
C391        C392   1.402       .  A
C391        N398   1.437       .  S
C392        C393   1.404       .  A
C392        H397   1.083       .  S
C393        C394   1.411       .  A
C394        N395   1.437       .  S
N395        H399   1.046       .  S
N395        H400   1.045       .  S
N398        H401   1.045       .  S
N398        H402   1.045       .  S
C403        C404   1.401       .  A
C403        C408   1.400       .  A
C403        H410   1.084       .  S
C404        C405   1.413       .  A
C405        C406   1.399       .  A
C405        N412   1.433       .  S
C406        C407   1.410       .  A
C406        H411   1.084       .  S
C407        C408   1.422       .  A
C408        N409   1.432       .  S
N409        H413   1.046       .  S
N409        H414   1.045       .  S
N412        H415   1.045       .  S
N412        H416   1.045       .  S
C417        C422   1.408       .  A
C417       C1642   1.400       .  A
C417        H424   1.084       .  S
C418       C1641   1.400   1_455  A
C418       C1643   1.418   1_455  A
C419        C420   1.405       .  A
C419       C1642   1.415       .  A
C419       N1650   1.439       .  S
C420        C421   1.404       .  A
C420        H425   1.083       .  S
C421        C422   1.421       .  A
C422        N423   1.438       .  S
N423        H427   1.046       .  S
N423        H428   1.046       .  S
N426       C1643   1.439   1_455  S
N426        H429   1.046       .  S
N426       H1654   1.046   1_455  S
H430       N1650   1.046       .  S
C431        C432   1.413       .  A
C431        C436   1.405       .  A
C431        H438   1.083       .  S
C432        C433   1.419       .  A
C433        C434   1.420       .  A
C433        N440   1.437       .  S
C434        C435   1.412       .  A
C434        H439   1.083       .  S
C435        C672   1.506   1_545  S
C435        C436   1.418       .  A
C436       N1049   1.433       .  S
N437       C1048   1.434       .  S
N437        H441   1.046       .  S
N437        H442   1.044       .  S
N440        H443   1.046       .  S
N440        H444   1.046       .  S
C445        C446   1.410       .  A
C445        C450   1.407       .  A
C445        H452   1.083       .  S
C446        C447   1.419       .  A
C447        C448   1.415       .  A
C447        N454   1.438       .  S
C448        C449   1.409       .  A
C448        H453   1.082       .  S
C449        C450   1.420       .  A
C450        N451   1.433       .  S
N451        H455   1.044       .  S
N451        H456   1.046       .  S
N454        H457   1.046       .  S
N454        H458   1.046       .  S
C459        C460   1.404       .  A
C459        C464   1.404       .  A
C459        H466   1.084       .  S
C460        C461   1.416       .  A
C461        C462   1.421       .  A
C461        N468   1.437       .  S
C462        C463   1.411       .  A
C462        H467   1.083       .  S
C463        C464   1.420       .  A
C464        N465   1.433       .  S
N465        H469   1.046       .  S
N465        H470   1.045       .  S
N468        H471   1.045       .  S
N468        H472   1.046       .  S
C473        C474   1.415   1_554  A
C473        C478   1.426       .  A
C473        H480   1.084       .  S
C474        C475   1.429       .  A
C475        C476   1.417       .  A
C475        N482   1.433       .  S
C476        C477   1.412       .  A
C476        H481   1.083       .  S
C477        C478   1.430   1_556  A
C478        N479   1.431       .  S
N479        H483   1.045       .  S
N479        H484   1.045       .  S
N482        H485   1.044       .  S
N482        H486   1.046       .  S
C487        C488   1.412   1_556  A
C487        C492   1.429       .  A
C487        H494   1.083       .  S
C488        C489   1.422       .  A
C489        C490   1.418       .  A
C489        N496   1.433       .  S
C490        C491   1.411       .  A
C490        H495   1.083       .  S
C491        C492   1.424   1_554  A
C492        N493   1.431       .  S
N493        H497   1.045       .  S
N493        H498   1.046       .  S
N496        H499   1.046       .  S
N496        H500   1.045       .  S
C501        C502   1.405       .  A
C501        C506   1.406       .  A
C501        H508   1.084       .  S
C502        C503   1.416   1_554  A
C503        C504   1.403       .  A
C503        N510   1.433       .  S
C504        C505   1.410   1_556  A
C504        H509   1.084       .  S
C505        C506   1.417       .  A
C506        N507   1.438       .  S
N507        H511   1.046       .  S
N507        H512   1.046       .  S
N510        H513   1.045       .  S
N510        H514   1.045       .  S
C515        C516   1.407       .  A
C515        C520   1.392       .  A
C515        H522   1.084       .  S
C516        C517   1.411   1_556  A
C517        C518   1.400       .  A
C517        N524   1.433       .  S
C518        C519   1.407   1_554  A
C518        H523   1.084       .  S
C519        C520   1.414       .  A
C520        N521   1.433       .  S
N521        H525   1.045       .  S
N521        H526   1.046       .  S
N524        H527   1.046       .  S
N524        H528   1.046       .  S
C529        C530   1.408       .  A
C529        C534   1.406       .  A
C529        H536   1.084       .  S
C530        C531   1.418       .  A
C531        C532   1.411       .  A
C531        N538   1.437       .  S
C532        C533   1.402       .  A
C532        H537   1.084       .  S
C533        C534   1.416       .  A
C534        N535   1.439       .  S
N535        H539   1.046       .  S
N535        H540   1.043       .  S
N538        H541   1.046       .  S
N538        H542   1.046       .  S
C543        C544   1.405       .  A
C543        C548   1.414       .  A
C543        H550   1.084       .  S
C544        C545   1.422       .  A
C545        C546   1.410       .  A
C545        N552   1.432       .  S
C546        C547   1.408       .  A
C546        H551   1.084       .  S
C547        C548   1.419       .  A
C548        N549   1.432       .  S
N549        H553   1.046       .  S
N549        H554   1.046       .  S
N552        H555   1.042       .  S
N552        H556   1.045       .  S
C557        C558   1.405       .  A
C557        C562   1.414       .  A
C557        H564   1.083       .  S
C558        C559   1.422       .  A
C559        C560   1.425       .  A
C559       N1790   1.437       .  S
C560        C561   1.412       .  A
C560        H565   1.083       .  S
C561        C562   1.424       .  A
C562        N563   1.438       .  S
N563        H567   1.046       .  S
N563        H568   1.046       .  S
N566       C1783   1.436       .  S
N566        H569   1.045       .  S
N566        H570   1.046       .  S
C571        C572   1.400       .  A
C571        C576   1.392       .  A
C571       H1190   1.080       .  S
C572        C573   1.408       .  A
C573        C574   1.395       .  A
C573        N580   1.433       .  S
C574       C1799   1.402       .  A
C574        H579   1.084       .  S
C575       C1798   1.402       .  A
C575       C1800   1.413       .  A
C576       C1799   1.411       .  A
C576       N1801   1.434       .  S
N577       C1800   1.433       .  S
N577        H582   1.046       .  S
N577       H2417   1.046       .  S
H578       C1183   1.084       .  S
N580        H583   1.045       .  S
N580        H584   1.046       .  S
H581       N2413   1.046       .  S
C585        C586   1.405       .  A
C585        C590   1.400       .  A
C585        H592   1.083       .  S
C586        C587   1.413       .  A
C587        C588   1.392       .  A
C587        N594   1.433       .  S
C588        C589   1.399       .  A
C588        H593   1.085       .  S
C589        C590   1.408       .  A
C590        N591   1.437       .  S
N591        H595   1.046       .  S
N591        H596   1.045       .  S
N594        H597   1.046       .  S
N594        H598   1.046       .  S
C599        C600   1.408       .  A
C599        C604   1.416       .  A
C599        H606   1.083       .  S
C600        C601   1.419       .  A
C601       C1214   1.420       .  A
C601        N608   1.438       .  S
C602        C603   1.405   1_565  A
C602       C1213   1.406       .  A
C602        H607   1.084   1_565  S
C603       C1216   1.422   1_545  A
C604       C1215   1.414       .  A
C604        N605   1.435       .  S
N605        H609   1.046       .  S
N605       H1222   1.041       .  S
N608        H611   1.046       .  S
N608       H1224   1.046       .  S
H610       N1217   1.046       .  S
H612       N1220   1.046       .  S
O613       Ni619   1.911       .  S
O613        C634   1.264       .  A
O614       Ni637   1.932       .  S
O614        C623   1.277       .  A
O615       Ni619   1.913       .  S
O615       Ni637   1.917       .  S
O615       Ni631   1.910       .  S
O615        H638   0.966       .  S
C616        O633   1.280       .  A
C616        O625   1.280       .  A
C616       C1198   1.470       .  S
O617       Ni636   1.951       .  S
O617        C623   1.280       .  A
O618       Ni636   1.925       .  S
O618        C620   1.274       .  A
Ni619       O624   1.911       .  S
C620        O630   1.279       .  A
C620       C1156   1.513       .  S
O621        C627   1.269       .  A
O622        C627   1.275       .  A
C623       C1215   1.505       .  S
O624        C626   1.269       .  A
O625       Ni636   1.910       .  S
C626        O632   1.283       .  A
C626       C1173   1.522       .  S
C627       C1184   1.463       .  S
H628        O629   0.966       .  S
O629       Ni637   1.889       .  S
O629       Ni631   1.912       .  S
O629       Ni636   1.886       .  S
O630       Ni631   1.951       .  S
Ni631       O635   1.944       .  S
Ni631       O633   1.906       .  S
O632       Ni637   1.977       .  S
C634        O635   1.272       .  A
C634       C1142   1.503       .  S
O639       Ni645   1.931       .  S
O640       Ni663   1.917       .  S
O640        C649   1.271       .  A
O641       Ni645   1.919       .  S
O641       Ni663   1.907   1_554  S
O641        H664   0.966       .  S
C642        O659   1.284   1_556  A
C642        O651   1.282       .  A
C642       C1128   1.475       .  S
O643       Ni662   1.944       .  S
O644       Ni662   1.930       .  S
O644        C646   1.272       .  A
Ni645       O648   1.928       .  S
Ni645       O650   1.945       .  S
C646        O656   1.289   1_556  A
C646       C1086   1.539       .  S
O647       Ni663   1.910       .  S
O647        C653   1.275   1_556  A
O648        C653   1.277       .  A
C649       C1145   1.491       .  S
O650        C652   1.281       .  A
O651       Ni662   1.914       .  S
C652        O658   1.283   1_554  A
C652       C1103   1.536       .  S
C653       C1114   1.478       .  S
H654        O655   0.966       .  S
O655       Ni657   1.901   1_556  S
O655       Ni662   1.887       .  S
O656       Ni657   1.977       .  S
Ni657       O661   1.929       .  S
Ni657       O659   1.926       .  S
O658       Ni663   1.971       .  S
C660        O661   1.273       .  A
C660       C1075   1.504       .  S
O665       Ni671   1.914       .  S
O665        C686   1.267       .  A
O666       Ni689   1.922       .  S
O666        C675   1.273       .  A
O667       Ni671   1.912       .  S
O667       Ni689   1.912       .  S
O667       Ni683   1.933       .  S
O667        H690   0.966       .  S
C668        O685   1.290       .  A
C668        O677   1.282       .  A
C668       C1030   1.477       .  S
O669       Ni688   1.948       .  S
O669        C675   1.280       .  A
O670       Ni688   1.920       .  S
O670        C672   1.269       .  A
Ni671       O674   1.926       .  S
Ni671       O676   1.913       .  S
C672        O682   1.275       .  A
O673       Ni689   1.914       .  S
O673        C679   1.274       .  A
O674        C679   1.276       .  A
C675       C1072   1.495       .  S
O676        C678   1.271       .  A
O677       Ni688   1.916       .  S
C678        O684   1.279       .  A
C678       C1058   1.505       .  S
C679       C1016   1.485       .  S
H680        O681   0.966       .  S
O681       Ni689   1.902       .  S
O681       Ni683   1.900       .  S
O681       Ni688   1.888       .  S
O682       Ni683   1.937       .  S
Ni683       O687   1.942       .  S
Ni683       O685   1.943       .  S
O684       Ni689   1.956       .  S
C686        O687   1.273       .  A
C686       C1212   1.493       .  S
O691       Ni697   1.906       .  S
O691        C712   1.267       .  A
O692       Ni715   1.889       .  S
O692        C701   1.259       .  A
O693       Ni697   1.915       .  S
O693       Ni715   1.903       .  S
O693       Ni709   1.924       .  S
O693        H716   0.966       .  S
C694        O711   1.269       .  A
C694        O703   1.279       .  A
C694       C1187   1.468       .  S
O695       Ni714   1.940       .  S
O695        C701   1.272       .  A
O696       Ni714   1.901       .  S
O696        C698   1.266       .  A
Ni697       O700   1.921       .  S
Ni697       O702   1.909       .  S
C698        O708   1.267       .  A
C698        C977   1.480       .  S
O699       Ni715   1.890       .  S
O699        C705   1.258       .  A
O700        C705   1.270       .  A
C701        C960   1.466       .  S
O702        C704   1.274       .  A
O703       Ni714   1.927       .  S
C704        O710   1.276       .  A
C704        C991   1.483       .  S
C705       C1201   1.457       .  S
H706        O707   0.966       .  S
O707       Ni715   1.882       .  S
O707       Ni709   1.904       .  S
O707       Ni714   1.905       .  S
O708       Ni709   1.910       .  S
Ni709       O713   1.910       .  S
Ni709       O711   1.890       .  S
O710       Ni715   1.938       .  S
C712        O713   1.266       .  A
C712       C1002   1.463       .  S
O717       Ni723   1.903       .  S
O717        C738   1.267       .  A
O718       Ni741   1.884       .  S
O718        C727   1.258       .  A
O719       Ni723   1.917       .  S
O719       Ni741   1.906   1_554  S
O719       Ni735   1.920       .  S
O719        H742   0.966       .  S
C720        O737   1.268       .  A
C720        O729   1.278   1_554  A
C720        C946   1.452       .  S
O721       Ni740   1.945       .  S
O721        C727   1.273       .  A
O722       Ni740   1.904       .  S
O722        C724   1.267       .  A
Ni723       O726   1.922       .  S
Ni723       O728   1.910       .  S
C724        O734   1.268   1_556  A
C724       C1131   1.471       .  S
O725       Ni741   1.881       .  S
O725        C731   1.253       .  A
O726        C731   1.271   1_554  A
C727        C963   1.472       .  S
O728        C730   1.272       .  A
O729       Ni740   1.920       .  S
C730        O736   1.277   1_554  A
C730       C1117   1.486       .  S
C731        C932   1.446       .  S
H732        O733   0.965       .  S
O733       Ni741   1.873       .  S
O733       Ni735   1.911   1_556  S
O733       Ni740   1.905       .  S
O734       Ni735   1.917       .  S
Ni735       O739   1.915       .  S
Ni735       O737   1.886       .  S
O736       Ni741   1.944       .  S
C738        O739   1.268       .  A
C738        C918   1.464       .  S
O743       Ni749   1.920       .  S
O743        C764   1.270       .  A
O744       Ni767   1.895       .  S
O744        C753   1.263       .  A
O745       Ni749   1.910       .  S
O745       Ni767   1.905       .  S
O745       Ni761   1.912       .  S
O745        H768   0.967       .  S
C746        O763   1.275       .  A
C746        O755   1.278       .  A
C746        C904   1.475       .  S
O747       Ni766   1.934       .  S
O747        C753   1.275       .  A
O748       Ni766   1.926       .  S
O748        C750   1.273       .  A
Ni749       O752   1.923       .  S
Ni749       O754   1.909       .  S
C750        O760   1.266       .  A
C750       C1033   1.493       .  S
O751       Ni767   1.888       .  S
O751        C757   1.262       .  A
O752        C757   1.273       .  A
C753        C921   1.465       .  S
O754        C756   1.271       .  A
O755       Ni766   1.912       .  S
C756        O762   1.278       .  A
C756       C1019   1.493       .  S
C757        C890   1.459       .  S
H758        O759   0.965       .  S
O759       Ni767   1.883       .  S
O759       Ni761   1.889       .  S
O759       Ni766   1.894       .  S
O760       Ni761   1.909       .  S
Ni761       O765   1.902       .  S
Ni761       O763   1.901       .  S
O762       Ni767   1.950       .  S
C764        O765   1.265       .  A
C764       C1005   1.464       .  S
O769       Ni775   1.918       .  S
O769        C790   1.269       .  A
O770       Ni793   1.932       .  S
O770        C779   1.276       .  A
O771       Ni775   1.911       .  S
O771       Ni793   1.911       .  S
O771       Ni787   1.929       .  S
O771        H794   0.966       .  S
C772        O789   1.285       .  A
C772        O781   1.281       .  A
O773       Ni792   1.928       .  S
O773        C779   1.275       .  A
O774       Ni792   1.918       .  S
O774       C2000   1.270       .  A
Ni775       O778   1.922       .  S
Ni775       O780   1.922       .  S
C776       O1998   1.271   1_455  A
C776       O2010   1.277   1_455  A
C776       C1170   1.513       .  S
O777       Ni793   1.901       .  S
O777        C783   1.274       .  A
O778        C783   1.275       .  A
C779        C862   1.495       .  S
O780        C782   1.274       .  A
O781       Ni792   1.903       .  S
C782        O788   1.283       .  A
C782       C1159   1.522       .  S
C783        C988   1.464       .  S
H784        O785   0.966       .  S
O785       Ni793   1.896       .  S
O785       Ni787   1.893       .  S
O785       Ni792   1.877       .  S
O786       Ni787   1.954       .  S
O786       C2000   1.279       .  A
Ni787       O791   1.926       .  S
Ni787       O789   1.925       .  S
O788       Ni793   1.971       .  S
C790        O791   1.270       .  A
C790        C879   1.494       .  S
O795       Ni801   1.928       .  S
O795       C2040   1.274   1_455  A
O796       Ni819   1.902       .  S
O796        C805   1.266       .  A
O797       Ni801   1.904       .  S
O797       Ni819   1.905   1_556  S
O797      Ni2037   1.898   1_455  S
O797        H820   0.966       .  S
C798        O815   1.275       .  A
C798        O807   1.283   1_556  A
C798        C935   1.456       .  S
O799       Ni818   1.953       .  S
O799       C2029   1.280       .  A
O800       Ni818   1.927       .  S
O800        C802   1.273       .  A
Ni801       O804   1.925       .  S
Ni801       O806   1.943       .  S
C802        O812   1.287   1_554  A
C802       C1100   1.533       .  S
O803       Ni819   1.878       .  S
O803        C809   1.266       .  A
O804        C809   1.281   1_556  A
C805       O2023   1.280   1_455  A
C805        C848   1.489       .  S
O806        C808   1.276       .  A
O807       Ni818   1.917       .  S
C808        O814   1.281   1_556  A
C808       C1089   1.541       .  S
C809        C949   1.453       .  S
H810       O2035   0.966   1_455  S
O811      Ni2043   1.880       .  S
O811       Ni813   1.904   1_554  S
O811       Ni818   1.881       .  S
O811       H2034   0.966       .  S
O812       Ni813   1.982       .  S
Ni813       O817   1.927       .  S
Ni813       O815   1.899       .  S
Ni813      O2021   1.902       .  S
O814       Ni819   1.977       .  S
C816       O2019   1.275       .  A
C816        O817   1.274       .  A
C816        C865   1.499       .  S
Ni819      O2035   1.877   1_455  S
O821       Ni827   1.905       .  S
O821        C842   1.264       .  A
O822       Ni845   1.919       .  S
O822        C831   1.272       .  A
O823       Ni827   1.906       .  S
O823       Ni845   1.906       .  S
O823       Ni839   1.910       .  S
O823        H846   0.966       .  S
C824        O841   1.284       .  A
C824        O833   1.280       .  A
C824        C893   1.474       .  S
O825       Ni844   1.944       .  S
O825        C831   1.279       .  A
O826       Ni844   1.925       .  S
O826        C828   1.269       .  A
Ni827      O2054   1.918   1_455  S
Ni827       O832   1.906       .  S
C828        O838   1.269       .  A
C828       C1061   1.495       .  S
O829      Ni2069   1.882       .  S
O829        C835   1.267       .  A
O830      Ni2051   1.920       .  S
O830        C835   1.275       .  A
C831        C876   1.492       .  S
O832        C834   1.269       .  A
O833       Ni844   1.907       .  S
C834        O840   1.282       .  A
C834       C1044   1.514       .  S
C835        C907   1.464       .  S
H836        O837   0.966       .  S
O837       Ni845   1.878       .  S
O837       Ni839   1.899       .  S
O837       Ni844   1.888       .  S
O838       Ni839   1.924       .  S
Ni839       O843   1.933       .  S
Ni839       O841   1.913       .  S
O840       Ni845   1.970       .  S
C842        O843   1.268       .  A
C842        C851   1.492       .  S
Ni845      O2053   1.882   1_455  S
C847        C848   1.408       .  A
C847        C852   1.407       .  A
C847        H854   1.084       .  S
C848        C849   1.412       .  A
C849        C850   1.407       .  A
C849        N856   1.438   1_455  S
C850        C851   1.408       .  A
C850        H855   1.084       .  S
C851        C852   1.415       .  A
C852        N853   1.432       .  S
N853        H857   1.045       .  S
N853        H858   1.044       .  S
N856        H859   1.045       .  S
N856        H860   1.046       .  S
C861        C862   1.404       .  A
C861       C2090   1.407       .  A
C861       H2092   1.084       .  S
C862        C863   1.417       .  A
C863        C864   1.411       .  A
C863        N870   1.432       .  S
C864        C865   1.409       .  A
C864        H869   1.084       .  S
C865       C2090   1.418       .  A
C866       C2085   1.405   1_455  A
C866       C2089   1.415   1_455  A
C866        N867   1.439       .  S
N867        H871   1.046       .  S
N867        H872   1.046       .  S
H868       C2085   1.084   1_455  S
N870        H873   1.046       .  S
N870        H874   1.045       .  S
C875        C876   1.402   1_655  A
C875       C2104   1.408       .  A
C875        H882   1.084       .  S
C876        C877   1.418       .  A
C877       C2102   1.410   1_455  A
C877        N884   1.432       .  S
C878       C2101   1.408       .  A
C878        C879   1.407       .  A
C878        H883   1.084       .  S
C879        C880   1.418       .  A
C880       C2099   1.407       .  A
C880        N881   1.438       .  S
N881        H885   1.046       .  S
N881        H886   1.046       .  S
N884        H887   1.045       .  S
N884        H888   1.045       .  S
C889        C890   1.397       .  A
C889        C894   1.396       .  A
C889        H896   1.084       .  S
C890        C891   1.406       .  A
C891        C892   1.394       .  A
C891        N898   1.432       .  S
C892        C893   1.404       .  A
C892        H897   1.084       .  S
C893        C894   1.419       .  A
C894        N895   1.439       .  S
N895        H899   1.046       .  S
N895        H900   1.046       .  S
N898        H901   1.046       .  S
N898        H902   1.046       .  S
C903        C908   1.388       .  A
C904        C905   1.414   1_565  A
C905        N912   1.439   1_545  S
C906        C907   1.403       .  A
C906       H2135   1.084       .  S
C907        C908   1.412       .  A
C908        N909   1.434       .  S
N909        H913   1.043       .  S
N909        H914   1.046       .  S
H911       C2130   1.084       .  S
N912        H915   1.046       .  S
N912        H916   1.046   1_565  S
C917        C918   1.402       .  A
C917        C922   1.401       .  A
C917        H924   1.085       .  S
C918        C919   1.414       .  A
C919        C920   1.399       .  A
C919        N926   1.438       .  S
C920        C921   1.400       .  A
C920        H925   1.084       .  S
C921        C922   1.414       .  A
C922        N923   1.438       .  S
N923        H927   1.045       .  S
N923        H928   1.044       .  S
N926        H929   1.044       .  S
N926        H930   1.046       .  S
C931        C932   1.401       .  A
C931        C936   1.395       .  A
C931        H938   1.084       .  S
C932        C933   1.404       .  A
C933        C934   1.390       .  A
C933        N940   1.436   1_556  S
C934        C935   1.403       .  A
C934        H939   1.084   1_556  S
C935        C936   1.406       .  A
C936        N937   1.433       .  S
N937        H941   1.045       .  S
N937        H942   1.046       .  S
N940        H943   1.046       .  S
N940        H944   1.046   1_554  S
C945        C946   1.401       .  A
C945        C950   1.399       .  A
C945        H952   1.084       .  S
C946        C947   1.403   1_554  A
C947        C948   1.390       .  A
C947        N954   1.433       .  S
C948        C949   1.399   1_556  A
C948        H953   1.084       .  S
C949        C950   1.409       .  A
C950        N951   1.438       .  S
N951        H955   1.046       .  S
N951        H956   1.046       .  S
N954        H957   1.046       .  S
N954        H958   1.045       .  S
C959        C960   1.400       .  A
C959        C964   1.403       .  A
C959        H966   1.084       .  S
C960        C961   1.410       .  A
C961        C962   1.403       .  A
C961        N968   1.438       .  S
C962        C963   1.401       .  A
C962        H967   1.084       .  S
C963        C964   1.410       .  A
C964        N965   1.433       .  S
N965        H969   1.045       .  S
N965        H970   1.046       .  S
N968        H971   1.045       .  S
N968        H972   1.046       .  S
C973        C974   1.407       .  A
C973        C978   1.395       .  A
C973        H980   1.083       .  S
C974        C975   1.415       .  A
C975        C976   1.402       .  A
C975        N982   1.439       .  S
C976        C977   1.408       .  A
C976        H981   1.083       .  S
C977        C978   1.409       .  A
C978        N979   1.433       .  S
N979        H983   1.046       .  S
N979        H984   1.046       .  S
N982        H986   1.046       .  S
C987        C988   1.399       .  A
C987        C992   1.396       .  A
C987        H994   1.085       .  S
C988        C989   1.407       .  A
C989        C990   1.405       .  A
C989        N996   1.438       .  S
C990        C991   1.408       .  A
C990        H995   1.083       .  S
C991        C992   1.416       .  A
C992        N993   1.433       .  S
N993        H997   1.046       .  S
N993        H998   1.046       .  S
N996        H999   1.046       .  S
N996       H1000   1.046       .  S
C1001      C1002   1.403       .  A
C1001      C1006   1.400       .  A
C1001      H1008   1.085       .  S
C1002      C1003   1.411       .  A
C1003      C1004   1.399       .  A
C1003      N1010   1.438       .  S
C1004      C1005   1.403       .  A
C1004      H1009   1.084       .  S
C1005      C1006   1.410       .  A
C1006      N1007   1.437       .  S
N1007      H1011   1.046       .  S
N1007      H1012   1.045       .  S
N1010      H1013   1.045       .  S
N1010      H1014   1.045       .  S
C1015      C1016   1.404       .  A
C1015      C1020   1.397       .  A
C1015      H1022   1.084       .  S
C1016      C1017   1.416       .  A
C1017      C1018   1.402       .  A
C1017      N1024   1.433       .  S
C1018      C1019   1.410       .  A
C1018      H1023   1.084       .  S
C1019      C1020   1.419       .  A
C1020      N1021   1.432       .  S
N1021      H1025   1.045       .  S
N1021      H1026   1.045       .  S
N1024      H1027   1.045       .  S
N1024      H1028   1.045       .  S
C1029      C2254   1.401       .  A
C1029      C1034   1.409       .  A
C1029      H1036   1.084       .  S
C1030      C2253   1.400   1_455  A
C1030      C2255   1.412   1_455  A
C1031      C2254   1.414       .  A
C1031      C1032   1.407       .  A
C1031      N2262   1.439       .  S
C1032      C1033   1.405       .  A
C1032      H1037   1.083       .  S
C1033      C1034   1.420       .  A
C1034      N1035   1.438       .  S
N1035      H1039   1.046       .  S
N1035      H1040   1.046       .  S
N1038      C2255   1.439   1_455  S
N1038      H1041   1.046       .  S
N1038      H2266   1.046   1_455  S
H1042      N2262   1.046       .  S
C1043      C1044   1.413       .  A
C1043      C1048   1.404       .  A
C1043      H1050   1.083       .  S
C1044      C1045   1.418       .  A
C1045      C1046   1.419       .  A
C1045      N1052   1.437       .  S
C1046      C1047   1.411       .  A
C1046      H1051   1.083       .  S
C1047      C1048   1.418       .  A
N1049      H1053   1.046       .  S
N1049      H1054   1.044       .  S
N1052      H1055   1.046       .  S
N1052      H1056   1.046       .  S
C1057      C1058   1.412       .  A
C1057      C1062   1.405       .  A
C1057      H1064   1.083       .  S
C1058      C1059   1.418       .  A
C1059      C1060   1.412       .  A
C1059      N1066   1.438       .  S
C1060      C1061   1.407       .  A
C1060      H1065   1.082       .  S
C1061      C1062   1.413       .  A
C1062      N1063   1.432       .  S
N1063      H1067   1.044       .  S
N1063      H1068   1.046       .  S
N1066      H1069   1.046       .  S
N1066      H1070   1.046       .  S
C1071      C1072   1.402       .  A
C1071      C1076   1.403       .  A
C1071      H1078   1.084       .  S
C1072      C1073   1.414       .  A
C1073      C1074   1.418       .  A
C1073      N1080   1.437       .  S
C1074      C1075   1.410       .  A
C1074      H1079   1.084       .  S
C1075      C1076   1.422       .  A
C1076      N1077   1.432   1_565  S
N1077      H1081   1.045       .  S
N1077      H1082   1.045       .  S
N1080      H1083   1.045       .  S
N1080      H1084   1.046       .  S
C1085      C1086   1.415   1_554  A
C1085      C1090   1.427       .  A
C1085      H1092   1.084       .  S
C1086      C1087   1.428       .  A
C1087      C1088   1.418       .  A
C1087      N1094   1.432       .  S
C1088      C1089   1.412       .  A
C1088      H1093   1.083       .  S
C1089      C1090   1.429   1_556  A
C1090      N1091   1.432       .  S
N1091      H1095   1.046       .  S
N1091      H1096   1.045       .  S
N1094      H1097   1.044       .  S
N1094      H1098   1.046       .  S
C1099      C1100   1.412   1_556  A
C1099      C1104   1.428       .  A
C1099      H1106   1.083       .  S
C1100      C1101   1.422       .  A
C1101      C1102   1.421       .  A
C1101      N1108   1.433       .  S
C1102      C1103   1.412       .  A
C1102      H1107   1.083       .  S
C1103      C1104   1.423   1_554  A
C1104      N1105   1.431       .  S
N1105      H1109   1.045       .  S
N1105      H1110   1.046       .  S
N1108      H1111   1.046       .  S
N1108      H1112   1.045       .  S
C1113      C1114   1.403       .  A
C1113      C1118   1.406       .  A
C1113      H1120   1.084       .  S
C1114      C1115   1.416   1_554  A
C1115      C1116   1.398       .  A
C1115      N1122   1.433       .  S
C1116      C1117   1.405   1_556  A
C1116      H1121   1.084       .  S
C1117      C1118   1.417       .  A
C1118      N1119   1.438       .  S
N1119      H1123   1.046       .  S
N1119      H1124   1.046       .  S
N1122      H1125   1.045       .  S
N1122      H1126   1.045       .  S
C1127      C1128   1.405       .  A
C1127      C1132   1.394       .  A
C1127      H1134   1.084       .  S
C1128      C1129   1.411   1_556  A
C1129      C1130   1.399       .  A
C1129      N1136   1.433       .  S
C1130      C1131   1.404   1_554  A
C1130      H1135   1.084       .  S
C1131      C1132   1.413       .  A
C1132      N1133   1.433       .  S
N1133      H1137   1.045       .  S
N1133      H1138   1.046       .  S
N1136      H1139   1.045       .  S
N1136      H1140   1.045       .  S
C1141      C1142   1.409       .  A
C1141      C1146   1.402       .  A
C1141      H1148   1.084       .  S
C1142      C1143   1.416       .  A
C1143      C1144   1.419       .  A
C1143      N1150   1.436       .  S
C1144      C1145   1.408       .  A
C1144      H1149   1.084       .  S
C1145      C1146   1.416       .  A
C1146      N1147   1.441       .  S
N1147      H1151   1.046       .  S
N1147      H1152   1.043       .  S
N1150      H1153   1.046       .  S
N1150      H1154   1.046       .  S
C1155      C1156   1.406       .  A
C1155      C1160   1.415       .  A
C1155      H1162   1.083       .  S
C1156      C1157   1.422       .  A
C1157      C1158   1.415       .  A
C1157      N1164   1.431       .  S
C1158      C1159   1.412       .  A
C1158      H1163   1.084       .  S
C1159      C1160   1.424       .  A
C1160      N1161   1.438       .  S
N1161      H1165   1.046       .  S
N1161      H1166   1.045       .  S
N1164      H1167   1.045       .  S
N1164      H1168   1.046       .  S
C1169      C1170   1.406       .  A
C1169      C1174   1.413       .  A
C1169      H1176   1.084       .  S
C1170      C1171   1.420       .  A
C1171      C1172   1.423       .  A
C1171      N2402   1.436       .  S
C1172      C1173   1.411       .  A
C1172      H1177   1.083       .  S
C1173      C1174   1.425       .  A
C1174      N1175   1.439       .  S
N1175      H1179   1.046       .  S
N1175      H1180   1.046       .  S
N1178      C2395   1.437       .  S
N1178      H1181   1.045       .  S
N1178      H1182   1.046       .  S
C1183      C1184   1.401       .  A
C1183      C1188   1.399       .  A
C1184      C1185   1.408       .  A
C1185      C1186   1.397       .  A
C1185      N1192   1.438       .  S
C1186      C2411   1.401       .  A
C1186      H1191   1.084       .  S
C1187      C2410   1.401       .  A
C1187      C2412   1.412       .  A
C1188      C2411   1.415       .  A
C1188      N2413   1.439       .  S
N1189      C2412   1.433       .  S
N1189      H1805   1.046       .  S
N1189      H1194   1.046       .  S
N1192      H1195   1.045       .  S
N1192      H1196   1.046       .  S
H1193      N1801   1.046       .  S
C1197      C1198   1.403       .  A
C1197      C1202   1.399       .  A
C1197      H1204   1.084       .  S
C1198      C1199   1.413       .  A
C1199      C1200   1.391       .  A
C1199      N1206   1.433       .  S
C1200      C1201   1.396       .  A
C1200      H1205   1.084       .  S
C1201      C1202   1.410       .  A
C1202      N1203   1.436       .  S
N1203      H1207   1.046       .  S
N1203      H1208   1.046       .  S
N1206      H1209   1.046       .  S
N1206      H1210   1.046       .  S
C1211      C1212   1.404       .  A
C1211      C1216   1.420       .  A
C1211      H1218   1.083       .  S
C1212      C1213   1.411       .  A
C1213      N1220   1.433       .  S
C1214      C1215   1.407       .  A
C1214      H1219   1.084       .  S
C1216      N1217   1.437   1_565  S
N1217      H1221   1.046   1_545  S
N1220      H1223   1.045       .  S
O1225     Ni1231   1.914       .  S
O1225      C1246   1.265       .  A
O1226     Ni1249   1.924       .  S
O1226      C1235   1.275       .  A
O1227     Ni1231   1.913       .  S
O1227     Ni1249   1.914       .  S
O1227     Ni1243   1.913       .  S
O1227      H1250   0.966       .  S
C1228      O1245   1.284       .  A
C1228      O1237   1.282       .  A
C1228      C1810   1.475       .  S
O1229     Ni1248   1.949       .  S
O1229      C1235   1.282       .  A
O1230     Ni1248   1.928       .  S
O1230      C1232   1.272       .  A
Ni1231     O1846   1.916   1_545  S
Ni1231     O1236   1.915       .  S
C1232      O1242   1.276       .  A
C1232      C1768   1.510       .  S
O1233     Ni1861   1.893       .  S
O1233      C1239   1.272       .  A
O1234     Ni1843   1.914       .  S
O1234      C1239   1.276       .  A
C1235      C1827   1.505       .  S
O1236      C1238   1.270       .  A
O1237     Ni1248   1.913       .  S
C1238      O1244   1.284       .  A
C1238      C1785   1.521       .  S
C1239      C1796   1.464       .  S
H1240      O1241   0.966       .  S
O1241     Ni1249   1.886       .  S
O1241     Ni1243   1.900       .  S
O1241     Ni1248   1.884       .  S
O1242     Ni1243   1.946       .  S
Ni1243     O1247   1.933       .  S
Ni1243     O1245   1.917       .  S
O1244     Ni1249   1.975       .  S
C1246      O1247   1.271       .  A
C1246      C1754   1.494       .  S
Ni1249     O1845   1.895   1_545  S
O1251     Ni1257   1.927       .  S
O1251      C1884   1.274   1_545  A
O1252     Ni1275   1.913       .  S
O1252      C1261   1.272       .  A
O1253     Ni1257   1.916       .  S
O1253     Ni1275   1.909   1_554  S
O1253     Ni1881   1.937   1_545  S
O1253      H1276   0.966       .  S
C1254      O1271   1.284   1_556  A
C1254      O1263   1.282       .  A
C1254      C1740   1.474       .  S
O1255     Ni1274   1.943       .  S
O1255      C1873   1.280       .  A
O1256     Ni1274   1.928       .  S
O1256      C1258   1.271       .  A
Ni1257     O1260   1.920       .  S
Ni1257     O1262   1.943       .  S
C1258      O1268   1.288   1_556  A
C1258      C1698   1.537       .  S
O1259     Ni1275   1.919       .  S
O1259      C1265   1.277   1_556  A
O1260      C1265   1.276       .  A
C1261      O1867   1.278   1_545  A
C1261      C1757   1.482       .  S
O1262      C1264   1.280       .  A
O1263     Ni1274   1.914       .  S
C1264      O1270   1.282   1_554  A
C1264      C1715   1.535       .  S
C1265      C1726   1.481       .  S
H1266      O1267   0.966       .  S
O1267     Ni1887   1.909       .  S
O1267     Ni1269   1.903   1_556  S
O1267     Ni1274   1.885       .  S
O1268     Ni1269   1.979       .  S
Ni1269     O1273   1.930       .  S
Ni1269     O1271   1.926       .  S
Ni1269     O1865   1.938       .  S
O1270     Ni1275   1.972       .  S
C1272      O1863   1.275       .  A
C1272      O1273   1.273       .  A
C1272      C1687   1.503       .  S
Ni1275     O1879   1.910   1_545  S
O1277     Ni1283   1.927       .  S
O1277      C1298   1.270       .  A
O1278     Ni1301   1.931       .  S
O1278      C1287   1.276       .  A
O1279     Ni1283   1.913       .  S
O1279     Ni1301   1.912       .  S
O1279     Ni1295   1.930       .  S
O1279      H1302   0.966       .  S
C1280      O1297   1.291       .  A
C1280      O1289   1.282       .  A
C1280      C1642   1.482       .  S
O1281     Ni1300   1.948       .  S
O1281      C1287   1.281       .  A
O1282     Ni1300   1.925       .  S
O1282      C1284   1.270       .  A
Ni1283     O1286   1.932       .  S
Ni1283     O1288   1.919       .  S
C1284      O1294   1.274       .  A
C1284      C2271   1.506       .  S
O1285     Ni1301   1.912       .  S
O1285      C1291   1.275       .  A
O1286      C1291   1.276       .  A
C1287      C1684   1.505       .  S
O1288      C1290   1.275       .  A
O1289     Ni1300   1.917       .  S
C1290      O1296   1.280       .  A
C1290      C1670   1.507       .  S
C1291      C1628   1.481       .  S
H1292      O1293   0.966       .  S
O1293     Ni1301   1.903       .  S
O1293     Ni1295   1.899       .  S
O1293     Ni1300   1.887       .  S
O1294     Ni1295   1.934       .  S
Ni1295     O1299   1.939       .  S
Ni1295     O1297   1.947       .  S
O1296     Ni1301   1.957       .  S
C1298      O1299   1.274       .  A
C1298      C1824   1.496       .  S
O1303     Ni1309   1.905       .  S
O1303      C1324   1.267       .  A
O1304     Ni1327   1.887       .  S
O1304      C1313   1.260       .  A
O1305     Ni1309   1.912       .  S
O1305     Ni1327   1.904       .  S
O1305     Ni1321   1.925       .  S
O1305      H1328   0.967       .  S
C1306      O1323   1.268       .  A
C1306      O1315   1.279       .  A
C1306      C1799   1.464   1_655  S
O1307     Ni1326   1.935       .  S
O1307      C1313   1.272       .  A
O1308     Ni1326   1.904       .  S
O1308      C1310   1.266       .  A
Ni1309     O1312   1.916       .  S
Ni1309     O1314   1.915       .  S
C1310      O1320   1.266       .  A
C1310      C1589   1.477       .  S
O1311     Ni1327   1.897       .  S
O1311      C1317   1.260       .  A
O1312      C1317   1.269       .  A
C1313      C1572   1.461       .  S
O1314      C1316   1.278       .  A
O1315     Ni1326   1.927       .  S
C1316      O1322   1.277       .  A
C1316      C1603   1.490       .  S
C1317      C1813   1.460       .  S
H1318      O1319   0.966       .  S
O1319     Ni1327   1.881       .  S
O1319     Ni1321   1.899       .  S
O1319     Ni1326   1.905       .  S
O1320     Ni1321   1.905       .  S
Ni1321     O1325   1.917       .  S
Ni1321     O1323   1.883       .  S
O1322     Ni1327   1.940       .  S
C1324      O1325   1.266       .  A
C1324      C1614   1.467       .  S
O1329     Ni1335   1.911       .  S
O1329      C1350   1.268       .  A
O1330     Ni1353   1.885       .  S
O1330      C1339   1.258       .  A
O1331     Ni1335   1.920       .  S
O1331     Ni1353   1.906   1_554  S
O1331     Ni1347   1.912       .  S
O1331      H1354   0.966       .  S
C1332      O1349   1.267       .  A
C1332      O1341   1.275   1_554  A
C1332      C1558   1.451       .  S
O1333     Ni1352   1.934       .  S
O1333      C1339   1.270       .  A
O1334     Ni1352   1.904       .  S
O1334      C1336   1.268       .  A
Ni1335     O1338   1.923       .  S
Ni1335     O1340   1.914       .  S
C1336      O1346   1.269   1_556  A
C1336      C1743   1.469       .  S
O1337     Ni1353   1.882       .  S
O1337      C1343   1.255       .  A
O1338      C1343   1.273   1_554  A
C1339      C1575   1.470       .  S
O1340      C1342   1.272       .  A
O1341     Ni1352   1.913       .  S
C1342      O1348   1.274   1_554  A
C1342      C1729   1.490       .  S
C1343      C1544   1.448       .  S
H1344      O1345   0.965       .  S
O1345     Ni1353   1.887       .  S
O1345     Ni1347   1.922   1_556  S
O1345     Ni1352   1.909       .  S
O1346     Ni1347   1.916       .  S
Ni1347     O1351   1.920       .  S
Ni1347     O1349   1.890       .  S
O1348     Ni1353   1.940       .  S
C1350      O1351   1.271       .  A
C1350      C1530   1.471       .  S
O1355     Ni1361   1.928       .  S
O1355      C1376   1.272       .  A
O1356     Ni1379   1.908       .  S
O1356      C1365   1.267       .  A
O1357     Ni1361   1.907       .  S
O1357     Ni1379   1.907       .  S
O1357     Ni1373   1.908       .  S
O1357      H1380   0.966       .  S
C1358      O1375   1.275       .  A
C1358      O1367   1.277       .  A
C1358      C1516   1.470       .  S
O1359     Ni1378   1.930       .  S
O1359      C1365   1.274       .  A
O1360     Ni1378   1.920       .  S
O1360      C1362   1.272       .  A
Ni1361     O1364   1.928       .  S
Ni1361     O1366   1.914       .  S
C1362      O1372   1.265       .  A
C1362      C1645   1.492       .  S
O1363     Ni1379   1.882       .  S
O1363      C1369   1.261       .  A
O1364      C1369   1.275       .  A
C1365      C1533   1.473       .  S
O1366      C1368   1.273       .  A
O1367     Ni1378   1.907       .  S
C1368      O1374   1.281       .  A
C1368      C1631   1.496       .  S
C1369      C1502   1.458       .  S
H1370      O1371   0.965       .  S
O1371     Ni1379   1.879       .  S
O1371     Ni1373   1.890       .  S
O1371     Ni1378   1.890       .  S
O1372     Ni1373   1.904       .  S
Ni1373     O1377   1.908       .  S
Ni1373     O1375   1.899       .  S
O1374     Ni1379   1.953       .  S
C1376      O1377   1.267       .  A
C1376      C1617   1.473       .  S
O1381     Ni1387   1.916       .  S
O1381      C1402   1.267       .  A
O1382     Ni1405   1.931       .  S
O1382      C1391   1.278       .  A
O1383     Ni1387   1.913       .  S
O1383     Ni1405   1.914       .  S
O1383     Ni1399   1.934       .  S
O1383      H1406   0.966       .  S
C1384      O1401   1.284       .  A
C1384      O1393   1.282       .  A
C1384      C2198   1.485   1_545  S
O1385     Ni1404   1.939       .  S
O1385      C1391   1.279       .  A
O1386     Ni1404   1.924       .  S
Ni1387     O1390   1.924       .  S
Ni1387     O1392   1.914       .  S
C1388      C1782   1.512       .  S
O1389     Ni1405   1.913       .  S
O1389      C1395   1.276       .  A
O1390      C1395   1.275       .  A
C1391      C1474   1.503       .  S
O1392      C1394   1.272       .  A
O1393     Ni1404   1.915       .  S
C1394      O1400   1.285       .  A
C1394      C1771   1.517       .  S
C1395      C1600   1.475       .  S
H1396      O1397   0.966       .  S
O1397     Ni1405   1.904       .  S
O1397     Ni1399   1.894       .  S
O1397     Ni1404   1.884       .  S
O1398     Ni1399   1.949       .  S
Ni1399     O1403   1.926       .  S
Ni1399     O1401   1.925       .  S
O1400     Ni1405   1.972       .  S
C1402      O1403   1.268       .  A
C1402      C1491   1.491       .  S
O1407     Ni1413   1.931       .  S
O1408     Ni1431   1.904       .  S
O1408      C1417   1.266       .  A
O1409     Ni1413   1.911       .  S
O1409     Ni1431   1.908   1_556  S
O1409      H1432   0.966       .  S
C1410      O1427   1.276       .  A
C1410      O1419   1.284   1_556  A
C1410      C1547   1.460       .  S
O1411     Ni1430   1.953       .  S
O1412     Ni1430   1.925       .  S
O1412      C1414   1.272       .  A
Ni1413     O1416   1.927       .  S
Ni1413     O1418   1.948       .  S
C1414      O1424   1.286   1_554  A
C1414      C1712   1.530       .  S
O1415     Ni1431   1.881       .  S
O1415      C1421   1.267       .  A
O1416      C1421   1.280   1_556  A
C1417      C1460   1.490       .  S
O1418      C1420   1.277       .  A
O1419     Ni1430   1.915       .  S
C1420      O1426   1.281   1_556  A
C1420      C1701   1.542       .  S
C1421      C1561   1.455       .  S
O1423     Ni1425   1.904   1_554  S
O1423     Ni1430   1.883       .  S
O1424     Ni1425   1.980       .  S
Ni1425     O1429   1.929       .  S
Ni1425     O1427   1.899       .  S
O1426     Ni1431   1.977       .  S
C1428      O1429   1.273       .  A
C1428      C1477   1.499       .  S
O1433     Ni1439   1.904       .  S
O1433      C1454   1.264       .  A
O1434     Ni1457   1.918       .  S
O1434      C1443   1.271       .  A
O1435     Ni1439   1.906       .  S
O1435     Ni1457   1.905       .  S
O1435     Ni1451   1.918       .  S
O1435      H1458   0.967       .  S
C1436      O1453   1.287       .  A
C1436      O1445   1.277       .  A
C1436      C1505   1.475       .  S
O1437     Ni1456   1.931       .  S
O1437      C1443   1.276       .  A
O1438     Ni1456   1.919       .  S
O1438      C1440   1.268       .  A
Ni1439     O1444   1.912       .  S
C1440      O1450   1.272       .  A
C1440      C1673   1.500       .  S
O1441      C1447   1.269       .  A
O1442      C1447   1.275       .  A
C1443      C1488   1.486       .  S
O1444      C1446   1.270       .  A
O1445     Ni1456   1.894       .  S
C1446      O1452   1.281       .  A
C1446      C1656   1.516       .  S
C1447      C1519   1.463       .  S
H1448      O1449   0.966       .  S
O1449     Ni1457   1.882       .  S
O1449     Ni1451   1.897       .  S
O1449     Ni1456   1.883       .  S
O1450     Ni1451   1.932       .  S
Ni1451     O1455   1.938       .  S
Ni1451     O1453   1.925       .  S
O1452     Ni1457   1.969       .  S
C1454      O1455   1.270       .  A
C1454      C1463   1.495       .  S
C1459      C1460   1.409       .  A
C1459      C1464   1.408       .  A
C1459      H1466   1.084       .  S
C1460      C1461   1.411       .  A
C1461      C1462   1.407       .  A
C1461      N1468   1.438       .  S
C1462      C1463   1.409       .  A
C1462      H1467   1.084       .  S
C1463      C1464   1.416       .  A
C1464      N1465   1.431       .  S
N1465      H1469   1.045       .  S
N1465      H1470   1.044       .  S
N1468      H1471   1.045       .  S
N1468      H1472   1.046       .  S
C1473      C1474   1.407       .  A
C1474      C1475   1.420       .  A
C1475      C1476   1.412       .  A
C1475      N1482   1.432       .  S
C1476      C1477   1.408       .  A
C1476      H1481   1.084       .  S
C1478      N1479   1.438       .  S
N1479      H1483   1.046       .  S
N1479      H1484   1.046       .  S
N1482      H1485   1.046       .  S
N1482      H1486   1.045       .  S
C1487      C1488   1.402       .  A
C1487      H1494   1.084       .  S
C1488      C1489   1.417       .  A
C1489      N1496   1.432       .  S
C1490      C1491   1.407       .  A
C1490      H1495   1.084       .  S
C1491      C1492   1.417       .  A
C1492      N1493   1.439       .  S
N1493      H1497   1.046       .  S
N1493      H1498   1.046       .  S
N1496      H1499   1.046       .  S
N1496      H1500   1.045       .  S
C1501      C1502   1.395       .  A
C1501      C1506   1.394       .  A
C1501      H1508   1.084       .  S
C1502      C1503   1.408       .  A
C1503      C1504   1.394       .  A
C1503      N1510   1.431       .  S
C1504      C1505   1.403       .  A
C1504      H1509   1.084       .  S
C1505      C1506   1.422       .  A
C1506      N1507   1.439       .  S
N1507      H1511   1.046       .  S
N1507      H1512   1.046       .  S
N1510      H1513   1.046       .  S
N1510      H1514   1.046       .  S
C1515      C2128   1.404   1_545  A
C1515      C1520   1.387       .  A
C1515      H2134   1.084       .  S
C1516      C2127   1.404       .  A
C1516      C1517   1.413       .  A
C1517      C2130   1.395       .  A
C1517      N1524   1.439       .  S
C1518      C2129   1.394       .  A
C1518      C1519   1.404       .  A
C1519      C1520   1.413       .  A
C1520      N1521   1.434       .  S
N1521      H1525   1.044       .  S
N1521      H1526   1.045       .  S
H1522      C2127   1.084       .  S
N1524      H1527   1.046       .  S
N1524      H1528   1.046       .  S
C1529      C1530   1.403       .  A
C1529      C1534   1.402       .  A
C1529      H1536   1.085       .  S
C1530      C1531   1.414       .  A
C1531      C1532   1.404       .  A
C1531      N1538   1.438       .  S
C1532      C1533   1.402       .  A
C1532      H1537   1.084       .  S
C1533      C1534   1.415       .  A
C1534      N1535   1.438       .  S
N1535      H1539   1.045       .  S
N1535      H1540   1.044       .  S
N1538      H1541   1.044       .  S
N1538      H1542   1.046       .  S
C1543      C1544   1.400       .  A
C1543      C1548   1.392       .  A
C1543      H1550   1.085       .  S
C1544      C1545   1.404   1_556  A
C1545      C1546   1.389       .  A
C1545      N1552   1.436       .  S
C1546      C1547   1.405   1_554  A
C1546      H1551   1.084       .  S
C1547      C1548   1.414       .  A
C1548      N1549   1.433       .  S
N1549      H1553   1.046       .  S
N1549      H1554   1.045       .  S
N1552      H1555   1.046       .  S
N1552      H1556   1.046       .  S
C1557      C1558   1.400       .  A
C1557      C1562   1.400       .  A
C1557      H1564   1.084       .  S
C1558      C1559   1.404   1_554  A
C1559      C1560   1.392       .  A
C1559      N1566   1.433       .  S
C1560      C1561   1.399   1_556  A
C1560      H1565   1.084       .  S
C1561      C1562   1.409       .  A
C1562      N1563   1.438       .  S
N1563      H1567   1.046       .  S
N1563      H1568   1.045       .  S
N1566      H1569   1.046       .  S
N1566      H1570   1.046       .  S
C1571      C1572   1.399       .  A
C1571      C1576   1.401       .  A
C1571      H1578   1.084       .  S
C1572      C1573   1.407       .  A
C1573      C1574   1.400       .  A
C1573      N1580   1.439       .  S
C1574      C1575   1.402       .  A
C1574      H1579   1.084       .  S
C1575      C1576   1.419       .  A
C1576      N1577   1.439       .  S
N1577      H1581   1.046       .  S
N1577      H1582   1.043       .  S
N1580      H1583   1.045       .  S
N1580      H1584   1.046       .  S
C1585      C1586   1.408       .  A
C1585      C1590   1.399       .  A
C1585      H1592   1.083       .  S
C1586      C1996   1.477       .  S
C1586      C1587   1.409       .  A
C1587      C1588   1.400       .  A
C1587      N1594   1.438       .  S
C1588      C1589   1.409       .  A
C1588      H1593   1.083       .  S
C1589      C1590   1.411       .  A
C1590      N1591   1.439       .  S
N1591      H1595   1.046       .  S
N1591      H1596   1.046       .  S
N1594      H2209   1.046       .  S
N1594      H1598   1.046       .  S
H1597      N2206   1.046       .  S
C1599      C1600   1.401       .  A
C1599      C1604   1.404       .  A
C1599      H1606   1.084       .  S
C1600      C1601   1.409       .  A
C1601      C1602   1.406       .  A
C1601      N1608   1.437       .  S
C1602      C1603   1.407       .  A
C1602      H1607   1.083       .  S
C1603      C1604   1.421       .  A
C1604      N1605   1.439       .  S
N1605      H1609   1.046       .  S
N1605      H1610   1.046       .  S
N1608      H1611   1.046       .  S
N1608      H1612   1.046       .  S
C1613      C1614   1.404       .  A
C1613      C1618   1.402       .  A
C1613      H1620   1.084       .  S
C1614      C1615   1.410       .  A
C1615      C1616   1.402       .  A
C1615      N1622   1.437       .  S
C1616      C1617   1.404       .  A
C1616      H1621   1.081       .  S
C1617      C1618   1.411       .  A
C1618      N1619   1.437       .  S
N1619      H1623   1.046       .  S
N1619      H1624   1.045       .  S
N1622      H1625   1.045       .  S
N1622      H1626   1.046       .  S
C1627      C1628   1.403       .  A
C1627      C1632   1.402       .  A
C1627      H1634   1.084       .  S
C1628      C1629   1.413       .  A
C1629      C1630   1.398       .  A
C1629      N1636   1.432       .  S
C1630      C1631   1.409       .  A
C1630      H1635   1.084       .  S
C1631      C1632   1.423       .  A
C1632      N1633   1.432       .  S
N1633      H1637   1.045       .  S
N1633      H1638   1.045       .  S
N1636      H1639   1.045       .  S
N1636      H1640   1.045       .  S
C1641      C1646   1.406       .  A
C1641      H1648   1.084       .  S
C1643      C1644   1.404       .  A
C1644      C1645   1.404       .  A
C1644      H1649   1.083       .  S
C1645      C1646   1.421       .  A
C1646      N1647   1.437       .  S
N1647      H1651   1.046       .  S
N1647      H1652   1.046       .  S
N1650      H1653   1.046       .  S
C1655      C1656   1.413       .  A
C1655      C1660   1.406       .  A
C1655      H1662   1.083       .  S
C1656      C1657   1.419       .  A
C1657      C1658   1.420       .  A
C1657      N1664   1.437       .  S
C1658      C1659   1.412       .  A
C1658      H1663   1.083       .  S
C1659      C1896   1.507   1_545  S
C1659      C1660   1.418       .  A
C1660      N2273   1.433       .  S
N1661      C2272   1.433       .  S
N1661      H1665   1.046       .  S
N1661      H1666   1.044       .  S
N1664      H1667   1.046       .  S
N1664      H1668   1.046       .  S
C1669      C1670   1.411       .  A
C1669      C1674   1.405       .  A
C1669      H1676   1.083       .  S
C1670      C1671   1.419       .  A
C1671      C1672   1.413       .  A
C1671      N1678   1.438       .  S
C1672      C1673   1.408       .  A
C1672      H1677   1.082       .  S
C1673      C1674   1.417       .  A
C1674      N1675   1.433       .  S
N1675      H1679   1.044       .  S
N1675      H1680   1.046       .  S
N1678      H1681   1.046       .  S
N1678      H1682   1.046       .  S
C1683      C1684   1.406       .  A
C1683      C1688   1.404       .  A
C1683      H1690   1.084       .  S
C1684      C1685   1.418       .  A
C1685      C1686   1.421       .  A
C1685      N1692   1.437       .  S
C1686      C1687   1.409       .  A
C1686      H1691   1.084       .  S
C1687      C1688   1.419       .  A
C1688      N1689   1.433       .  S
N1689      H1693   1.046       .  S
N1689      H1694   1.045       .  S
N1692      H1695   1.043       .  S
N1692      H1696   1.046       .  S
C1697      C1698   1.414   1_554  A
C1697      C1702   1.427       .  A
C1697      H1704   1.084       .  S
C1698      C1699   1.428       .  A
C1699      C1700   1.419       .  A
C1699      N1706   1.433       .  S
C1700      C1701   1.413       .  A
C1700      H1705   1.083       .  S
C1701      C1702   1.430   1_556  A
C1702      N1703   1.432       .  S
N1703      H1707   1.045       .  S
N1703      H1708   1.045       .  S
N1706      H1709   1.043       .  S
N1706      H1710   1.046       .  S
C1711      C1712   1.412   1_556  A
C1711      C1716   1.428       .  A
C1711      H1718   1.083       .  S
C1712      C1713   1.421       .  A
C1713      C1714   1.419       .  A
C1713      N1720   1.432       .  S
C1714      C1715   1.411       .  A
C1714      H1719   1.083       .  S
C1715      C1716   1.424   1_554  A
C1716      N1717   1.431       .  S
N1717      H1721   1.045       .  S
N1717      H1722   1.046       .  S
N1720      H1723   1.046       .  S
N1720      H1724   1.045       .  S
C1725      C1726   1.403       .  A
C1725      C1730   1.404       .  A
C1725      H1732   1.084       .  S
C1726      C1727   1.415   1_554  A
C1727      C1728   1.402       .  A
C1727      N1734   1.433       .  S
C1728      C1729   1.408   1_556  A
C1728      H1733   1.084       .  S
C1729      C1730   1.416       .  A
C1730      N1731   1.438       .  S
N1731      H1735   1.046       .  S
N1731      H1736   1.046       .  S
N1734      H1737   1.045       .  S
N1734      H1738   1.045       .  S
C1739      C1740   1.406       .  A
C1739      C1744   1.395       .  A
C1739      H1746   1.084       .  S
C1740      C1741   1.410   1_556  A
C1741      C1742   1.398       .  A
C1741      N1748   1.433       .  S
C1742      C1743   1.403   1_554  A
C1742      H1747   1.084       .  S
C1743      C1744   1.413       .  A
C1744      N1745   1.433       .  S
N1745      H1749   1.044       .  S
N1745      H1750   1.046       .  S
N1748      H1751   1.046       .  S
N1748      H1752   1.046       .  S
C1753      C1754   1.407       .  A
C1753      C1758   1.406       .  A
C1753      H1760   1.084       .  S
C1754      C1755   1.416       .  A
C1755      C1756   1.411       .  A
C1755      N1762   1.436       .  S
C1756      C1757   1.402       .  A
C1756      H1761   1.084       .  S
C1757      C1758   1.417       .  A
C1758      N1759   1.439       .  S
N1759      H1763   1.045       .  S
N1759      H1764   1.043       .  S
N1762      H1765   1.046       .  S
N1762      H1766   1.046       .  S
C1767      C1768   1.405       .  A
C1767      C1772   1.413       .  A
C1767      H1774   1.084       .  S
C1768      C1769   1.423       .  A
C1769      C1770   1.412       .  A
C1769      N1776   1.430       .  S
C1770      C1771   1.409       .  A
C1770      H1775   1.084       .  S
C1771      C1772   1.423       .  A
C1772      N1773   1.432       .  S
N1773      H1777   1.046       .  S
N1773      H1778   1.045       .  S
N1776      H1779   1.041       .  S
N1776      H1780   1.045       .  S
C1781      C1782   1.406       .  A
C1781      C1786   1.415       .  A
C1781      H1788   1.084       .  S
C1782      C1783   1.420       .  A
C1783      C1784   1.421       .  A
C1784      C1785   1.410       .  A
C1784      H1789   1.083       .  S
C1785      C1786   1.425       .  A
C1786      N1787   1.438       .  S
N1787      H1791   1.046       .  S
N1787      H1792   1.046       .  S
N1790      H1793   1.045   1_455  S
N1790      H1794   1.046       .  S
C1795      C1796   1.401       .  A
C1795      C1800   1.395       .  A
C1795      H2414   1.084       .  S
C1796      C1797   1.408       .  A
C1797      C1798   1.394       .  A
C1797      N1804   1.433       .  S
C1798      H1803   1.084       .  S
N1801      H1806   1.046       .  S
H1802      C2407   1.084       .  S
N1804      H1807   1.046       .  S
N1804      H1808   1.046       .  S
C1809      C1810   1.404       .  A
C1809      C1814   1.400       .  A
C1809      H1816   1.083       .  S
C1810      C1811   1.415       .  A
C1811      C1812   1.393       .  A
C1811      N1818   1.433       .  S
C1812      C1813   1.398       .  A
C1812      H1817   1.085       .  S
C1813      C1814   1.409       .  A
C1814      N1815   1.436       .  S
N1815      H1819   1.046       .  S
N1815      H1820   1.046       .  S
N1818      H1821   1.046       .  S
N1818      H1822   1.046       .  S
C1823      C1824   1.404       .  A
C1823      C1828   1.422       .  A
C1823      H1830   1.083       .  S
C1824      C1825   1.411       .  A
C1825      C2438   1.411       .  A
C1825      N1832   1.439       .  S
C1826      C2437   1.406   1_545  A
C1826      C1827   1.406       .  A
C1826      H1831   1.084       .  S
C1827      C2440   1.421   1_545  A
C1828      C2439   1.425       .  A
C1828      N1829   1.437       .  S
N1829      H1833   1.046       .  S
N1829      H2446   1.046       .  S
N1832      H1835   1.045       .  S
N1832      H2448   1.046       .  S
H1834      N2441   1.046       .  S
H1836      N2444   1.046       .  S
O1837     Ni1843   1.909       .  S
O1837      C1858   1.265       .  A
O1838     Ni1861   1.929       .  S
O1838      C1847   1.275       .  A
O1839     Ni1843   1.911       .  S
O1839     Ni1861   1.916       .  S
O1839     Ni1855   1.913       .  S
O1839      H1862   0.966       .  S
C1840      O1857   1.282       .  A
C1840      O1849   1.280       .  A
C1840      C2422   1.471       .  S
O1841     Ni1860   1.949       .  S
O1841      C1847   1.281       .  A
O1842     Ni1860   1.923       .  S
O1842      C1844   1.273       .  A
Ni1843     O1848   1.918       .  S
C1844      O1854   1.278       .  A
C1844      C2380   1.517       .  S
O1845      C1851   1.271       .  A
O1846      C1851   1.275       .  A
C1847      C2439   1.516       .  S
O1848      C1850   1.270       .  A
O1849     Ni1860   1.910       .  S
C1850      O1856   1.281       .  A
C1850      C2397   1.523       .  S
C1851      C2408   1.465       .  S
H1852      O1853   0.966       .  S
O1853     Ni1861   1.886       .  S
O1853     Ni1855   1.910       .  S
O1853     Ni1860   1.881       .  S
O1854     Ni1855   1.951       .  S
Ni1855     O1859   1.951       .  S
Ni1855     O1857   1.910       .  S
O1856     Ni1861   1.971       .  S
C1858      O1859   1.273       .  A
C1858      C2366   1.504       .  S
O1863     Ni1869   1.931       .  S
O1864     Ni1887   1.927       .  S
O1864      C1873   1.274       .  A
O1865     Ni1869   1.919       .  S
O1865     Ni1887   1.913   1_554  S
O1865      H1888   0.966       .  S
C1866      O1883   1.284   1_556  A
C1866      O1875   1.281       .  A
C1866      C2352   1.475       .  S
O1867     Ni1886   1.941       .  S
O1868     Ni1886   1.928       .  S
O1868      C1870   1.272       .  A
Ni1869     O1872   1.925       .  S
Ni1869     O1874   1.940       .  S
C1870      O1880   1.289   1_556  A
C1870      C2310   1.537       .  S
O1871     Ni1887   1.916       .  S
O1871      C1877   1.276   1_556  A
O1872      C1877   1.276       .  A
C1873      C2369   1.500       .  S
O1874      C1876   1.280       .  A
O1875     Ni1886   1.908       .  S
C1876      O1882   1.283   1_554  A
C1876      C2327   1.532       .  S
C1877      C2338   1.481       .  S
H1878      O1879   0.966       .  S
O1879     Ni1881   1.903   1_556  S
O1879     Ni1886   1.885       .  S
O1880     Ni1881   1.977       .  S
Ni1881     O1885   1.934       .  S
Ni1881     O1883   1.927       .  S
O1882     Ni1887   1.974       .  S
C1884      O1885   1.274       .  A
C1884      C2299   1.506       .  S
O1889     Ni1895   1.918       .  S
O1889      C1910   1.269       .  A
O1890     Ni1913   1.929       .  S
O1890      C1899   1.276       .  A
O1891     Ni1895   1.916       .  S
O1891     Ni1913   1.913       .  S
O1891     Ni1907   1.940       .  S
O1891      H1914   0.966       .  S
C1892      O1909   1.291       .  A
C1892      O1901   1.283       .  A
C1892      C2254   1.485       .  S
O1893     Ni1912   1.949       .  S
O1893      C1899   1.281       .  A
O1894     Ni1912   1.920       .  S
O1894      C1896   1.269       .  A
Ni1895     O1898   1.931       .  S
Ni1895     O1900   1.921       .  S
C1896      O1906   1.276       .  A
O1897     Ni1913   1.919       .  S
O1897      C1903   1.276       .  A
O1898      C1903   1.276       .  A
C1899      C2296   1.504       .  S
O1900      C1902   1.274       .  A
O1901     Ni1912   1.921       .  S
C1902      O1908   1.281       .  A
C1902      C2282   1.513       .  S
C1903      C2240   1.489       .  S
H1904      O1905   0.966       .  S
O1905     Ni1913   1.909       .  S
O1905     Ni1907   1.901       .  S
O1905     Ni1912   1.890       .  S
O1906     Ni1907   1.941       .  S
Ni1907     O1911   1.940       .  S
Ni1907     O1909   1.948       .  S
O1908     Ni1913   1.961       .  S
C1910      O1911   1.273       .  A
C1910      C2436   1.496       .  S
O1915     Ni1921   1.903       .  S
O1915      C1936   1.267       .  A
O1916     Ni1939   1.888       .  S
O1916      C1925   1.260       .  A
O1917     Ni1921   1.913       .  S
O1917     Ni1939   1.902       .  S
O1917     Ni1933   1.926       .  S
O1917      H1940   0.966       .  S
C1918      O1935   1.269       .  A
C1918      O1927   1.279       .  A
C1918      C2411   1.466   1_655  S
O1919     Ni1938   1.940       .  S
O1919      C1925   1.273       .  A
O1920     Ni1938   1.905       .  S
O1920      C1922   1.267       .  A
Ni1921     O1924   1.918       .  S
Ni1921     O1926   1.912       .  S
C1922      O1932   1.266       .  A
C1922      C2201   1.480       .  S
O1923     Ni1939   1.892       .  S
O1923      C1929   1.258       .  A
O1924      C1929   1.270       .  A
C1925      C2184   1.465       .  S
O1926      C1928   1.276       .  A
O1927     Ni1938   1.930       .  S
C1928      O1934   1.278       .  A
C1928      C2215   1.487       .  S
C1929      C2425   1.457       .  S
H1930      O1931   0.966       .  S
O1931     Ni1939   1.880       .  S
O1931     Ni1933   1.897       .  S
O1931     Ni1938   1.904       .  S
O1932     Ni1933   1.906       .  S
Ni1933     O1937   1.908       .  S
Ni1933     O1935   1.888       .  S
O1934     Ni1939   1.941       .  S
C1936      O1937   1.264       .  A
C1936      C2226   1.461       .  S
O1941     Ni1947   1.907       .  S
O1941      C1962   1.267       .  A
O1942     Ni1965   1.884       .  S
O1942      C1951   1.258       .  A
O1943     Ni1947   1.919       .  S
O1943     Ni1965   1.906   1_554  S
O1943     Ni1959   1.918       .  S
O1943      H1966   0.966       .  S
C1944      O1961   1.267       .  A
C1944      O1953   1.278   1_554  A
C1944      C2170   1.452       .  S
O1945     Ni1964   1.946       .  S
O1945      C1951   1.272       .  A
O1946     Ni1964   1.900       .  S
O1946      C1948   1.267       .  A
Ni1947     O1950   1.921       .  S
Ni1947     O1952   1.909       .  S
C1948      O1958   1.268   1_556  A
C1948      C2355   1.470       .  S
O1949     Ni1965   1.883       .  S
O1949      C1955   1.254       .  A
O1950      C1955   1.272   1_554  A
C1951      C2187   1.472       .  S
O1952      C1954   1.272       .  A
O1953     Ni1964   1.921       .  S
C1954      O1960   1.276   1_554  A
C1954      C2341   1.489       .  S
C1955      C2156   1.447       .  S
H1956      O1957   0.964       .  S
O1957     Ni1965   1.879       .  S
O1957     Ni1959   1.916   1_556  S
O1957     Ni1964   1.907       .  S
O1958     Ni1959   1.916       .  S
Ni1959     O1963   1.915       .  S
Ni1959     O1961   1.887       .  S
O1960     Ni1965   1.943       .  S
C1962      O1963   1.269       .  A
C1962      C2142   1.467       .  S
O1967     Ni1973   1.927       .  S
O1967      C1988   1.272       .  A
O1968     Ni1991   1.901       .  S
O1968      C1977   1.265       .  A
O1969     Ni1973   1.904       .  S
O1969     Ni1991   1.900       .  S
O1969     Ni1985   1.902       .  S
O1969      H1992   0.967       .  S
C1970      O1987   1.275       .  A
C1970      O1979   1.277       .  A
C1970      C2128   1.468       .  S
O1971     Ni1990   1.928       .  S
O1971      C1977   1.274       .  A
O1972     Ni1990   1.924       .  S
O1972      C1974   1.272       .  A
Ni1973     O1976   1.930       .  S
Ni1973     O1978   1.911       .  S
C1974      O1984   1.264       .  A
C1974      C2257   1.488       .  S
O1975     Ni1991   1.879       .  S
O1975      C1981   1.261       .  A
O1976      C1981   1.276       .  A
C1977      C2145   1.466       .  S
O1978      C1980   1.270       .  A
O1979     Ni1990   1.904       .  S
C1980      O1986   1.280       .  A
C1980      C2243   1.499       .  S
C1981      C2114   1.457       .  S
H1982      O1983   0.965       .  S
O1983     Ni1991   1.879       .  S
O1983     Ni1985   1.886       .  S
O1983     Ni1990   1.890       .  S
O1984     Ni1985   1.904       .  S
Ni1985     O1989   1.898       .  S
Ni1985     O1987   1.900       .  S
O1986     Ni1991   1.953       .  S
C1988      O1989   1.264       .  A
C1988      C2229   1.462       .  S
O1993     Ni1999   1.915       .  S
O1993      C2014   1.268       .  A
O1994     Ni2017   1.935       .  S
O1994      C2003   1.277       .  A
O1995     Ni1999   1.907       .  S
O1995     Ni2017   1.911       .  S
O1995     Ni2011   1.930       .  S
O1995      H2018   0.967       .  S
C1996      O2013   1.287       .  A
C1996      O2005   1.280       .  A
O1997     Ni2016   1.925       .  S
O1997      C2003   1.275       .  A
O1998     Ni2016   1.922       .  S
Ni1999     O2002   1.923       .  S
Ni1999     O2004   1.917       .  S
C2000      C2394   1.515       .  S
O2001     Ni2017   1.906       .  S
O2001      C2007   1.276       .  A
O2002      C2007   1.276       .  A
C2003      C2086   1.497       .  S
O2004      C2006   1.272       .  A
O2005     Ni2016   1.902       .  S
C2006      O2012   1.283       .  A
C2006      C2383   1.519       .  S
C2007      C2212   1.471       .  S
H2008      O2009   0.966       .  S
O2009     Ni2017   1.901       .  S
O2009     Ni2011   1.896       .  S
O2009     Ni2016   1.878       .  S
O2010     Ni2011   1.948       .  S
Ni2011     O2015   1.932       .  S
Ni2011     O2013   1.935       .  S
O2012     Ni2017   1.972       .  S
C2014      O2015   1.271       .  A
C2014      C2103   1.495       .  S
O2019     Ni2025   1.930       .  S
O2020     Ni2043   1.903       .  S
O2020      C2029   1.267       .  A
O2021     Ni2025   1.906       .  S
O2021     Ni2043   1.905   1_556  S
O2021      H2044   0.967       .  S
C2022      O2039   1.274       .  A
C2022      O2031   1.283   1_556  A
C2022      C2159   1.457       .  S
O2023     Ni2042   1.953       .  S
O2024     Ni2042   1.928       .  S
O2024      C2026   1.273       .  A
Ni2025     O2028   1.926       .  S
Ni2025     O2030   1.946       .  S
C2026      O2036   1.284   1_554  A
C2026      C2324   1.526       .  S
O2027     Ni2043   1.884       .  S
O2027      C2033   1.268       .  A
O2028      C2033   1.280   1_556  A
C2029      C2072   1.489       .  S
O2030      C2032   1.276       .  A
O2031     Ni2042   1.918       .  S
C2032      O2038   1.280   1_556  A
C2032      C2313   1.542       .  S
C2033      C2173   1.455       .  S
O2035     Ni2037   1.905   1_554  S
O2035     Ni2042   1.883       .  S
O2036     Ni2037   1.973       .  S
Ni2037     O2041   1.925       .  S
Ni2037     O2039   1.894       .  S
O2038     Ni2043   1.976       .  S
C2040      O2041   1.272       .  A
C2040      C2089   1.496       .  S
O2045     Ni2051   1.905       .  S
O2045      C2066   1.265       .  A
O2046     Ni2069   1.918       .  S
O2046      C2055   1.271       .  A
O2047     Ni2051   1.909       .  S
O2047     Ni2069   1.906       .  S
O2047     Ni2063   1.914       .  S
O2047      H2070   0.966       .  S
C2048      O2065   1.286       .  A
C2048      O2057   1.278       .  A
C2048      C2117   1.473       .  S
O2049     Ni2068   1.940       .  S
O2049      C2055   1.278       .  A
O2050     Ni2068   1.925       .  S
O2050      C2052   1.269       .  A
Ni2051     O2056   1.913       .  S
C2052      O2062   1.272       .  A
C2052      C2285   1.503       .  S
O2053      C2059   1.268       .  A
O2054      C2059   1.274       .  A
C2055      C2100   1.488       .  S
O2056      C2058   1.270       .  A
O2057     Ni2068   1.900       .  S
C2058      O2064   1.283       .  A
C2058      C2268   1.518       .  S
C2059      C2131   1.463       .  S
H2060      O2061   0.966       .  S
O2061     Ni2069   1.879       .  S
O2061     Ni2063   1.900       .  S
O2061     Ni2068   1.889       .  S
O2062     Ni2063   1.933       .  S
Ni2063     O2067   1.937       .  S
Ni2063     O2065   1.918       .  S
O2064     Ni2069   1.974       .  S
C2066      O2067   1.270       .  A
C2066      C2075   1.495       .  S
C2071      C2072   1.408       .  A
C2071      C2076   1.408       .  A
C2071      H2078   1.084       .  S
C2072      C2073   1.411       .  A
C2073      C2074   1.408       .  A
C2073      N2080   1.439       .  S
C2074      C2075   1.409       .  A
C2074      H2079   1.084       .  S
C2075      C2076   1.416       .  A
C2076      N2077   1.431       .  S
N2077      H2081   1.045       .  S
N2077      H2082   1.044       .  S
N2080      H2083   1.046       .  S
N2080      H2084   1.046       .  S
C2085      C2086   1.405       .  A
C2086      C2087   1.418       .  A
C2087      C2088   1.412       .  A
C2087      N2094   1.432       .  S
C2088      C2089   1.409       .  A
C2088      H2093   1.084       .  S
C2090      N2091   1.439       .  S
N2091      H2095   1.046       .  S
N2091      H2096   1.046       .  S
N2094      H2097   1.046       .  S
N2094      H2098   1.045       .  S
C2099      C2100   1.401       .  A
C2099      H2106   1.084       .  S
C2100      C2101   1.416       .  A
C2101      N2108   1.432       .  S
C2102      C2103   1.407       .  A
C2102      H2107   1.084       .  S
C2103      C2104   1.418       .  A
C2104      N2105   1.438       .  S
N2105      H2109   1.046       .  S
N2105      H2110   1.045       .  S
N2108      H2111   1.046       .  S
N2108      H2112   1.045       .  S
C2113      C2114   1.396       .  A
C2113      C2118   1.395       .  A
C2113      H2120   1.084       .  S
C2114      C2115   1.408       .  A
C2115      C2116   1.392       .  A
C2115      N2122   1.432       .  S
C2116      C2117   1.402       .  A
C2116      H2121   1.084       .  S
C2117      C2118   1.421       .  A
C2118      N2119   1.439       .  S
N2119      H2123   1.046       .  S
N2119      H2124   1.046       .  S
N2122      H2125   1.046       .  S
N2122      H2126   1.046       .  S
C2127      C2132   1.388       .  A
C2128      C2129   1.413   1_565  A
C2129      N2136   1.439   1_545  S
C2130      C2131   1.404       .  A
C2131      C2132   1.413       .  A
C2132      N2133   1.434       .  S
N2133      H2137   1.043       .  S
N2133      H2138   1.046       .  S
N2136      H2139   1.046       .  S
N2136      H2140   1.046   1_565  S
C2141      C2142   1.402       .  A
C2141      C2146   1.401       .  A
C2141      H2148   1.085       .  S
C2142      C2143   1.414       .  A
C2143      C2144   1.400       .  A
C2143      N2150   1.438       .  S
C2144      C2145   1.400       .  A
C2144      H2149   1.084       .  S
C2145      C2146   1.414       .  A
C2146      N2147   1.438       .  S
N2147      H2151   1.046       .  S
N2147      H2152   1.044       .  S
N2150      H2153   1.044       .  S
N2150      H2154   1.046       .  S
C2155      C2156   1.401       .  A
C2155      C2160   1.395       .  A
C2155      H2162   1.084       .  S
C2156      C2157   1.404       .  A
C2157      C2158   1.390       .  A
C2157      N2164   1.436   1_556  S
C2158      C2159   1.403       .  A
C2158      H2163   1.084   1_556  S
C2159      C2160   1.407       .  A
C2160      N2161   1.433       .  S
N2161      H2165   1.045       .  S
N2161      H2166   1.046       .  S
N2164      H2167   1.046       .  S
N2164      H2168   1.046       .  S
C2169      C2170   1.402       .  A
C2169      C2174   1.400       .  A
C2169      H2176   1.084       .  S
C2170      C2171   1.402   1_554  A
C2171      C2172   1.392       .  A
C2171      N2178   1.433       .  S
C2172      C2173   1.400   1_556  A
C2172      H2177   1.084       .  S
C2173      C2174   1.409       .  A
C2174      N2175   1.438       .  S
N2175      H2179   1.046       .  S
N2175      H2180   1.045       .  S
N2178      H2181   1.046       .  S
N2178      H2182   1.046       .  S
C2183      C2184   1.399       .  A
C2183      C2188   1.402       .  A
C2183      H2190   1.084       .  S
C2184      C2185   1.410       .  A
C2185      C2186   1.404       .  A
C2185      N2192   1.439       .  S
C2186      C2187   1.402       .  A
C2186      H2191   1.084       .  S
C2187      C2188   1.410       .  A
C2188      N2189   1.433       .  S
N2189      H2193   1.045       .  S
N2189      H2194   1.046       .  S
N2192      H2195   1.045       .  S
N2192      H2196   1.046       .  S
C2197      C2198   1.409       .  A
C2197      C2202   1.399       .  A
C2197      H2204   1.083       .  S
C2198      C2199   1.415       .  A
C2199      C2200   1.400       .  A
C2199      N2206   1.439       .  S
C2200      C2201   1.407       .  A
C2200      H2205   1.083       .  S
C2201      C2202   1.408       .  A
C2202      N2203   1.433       .  S
N2203      H2207   1.046       .  S
N2203      H2208   1.046       .  S
N2206      H2210   1.046       .  S
C2211      C2212   1.399       .  A
C2211      C2216   1.397       .  A
C2211      H2218   1.085       .  S
C2212      C2213   1.411       .  A
C2213      C2214   1.407       .  A
C2213      N2220   1.438       .  S
C2214      C2215   1.408       .  A
C2214      H2219   1.083       .  S
C2215      C2216   1.416       .  A
C2216      N2217   1.433       .  S
N2217      H2221   1.046       .  S
N2217      H2222   1.046       .  S
N2220      H2223   1.046       .  S
N2220      H2224   1.046       .  S
C2225      C2226   1.404       .  A
C2225      C2230   1.398       .  A
C2225      H2232   1.085       .  S
C2226      C2227   1.411       .  A
C2227      C2228   1.398       .  A
C2227      N2234   1.438       .  S
C2228      C2229   1.402       .  A
C2228      H2233   1.085       .  S
C2229      C2230   1.408       .  A
C2230      N2231   1.433       .  S
N2231      H2235   1.045       .  S
N2231      H2236   1.046       .  S
N2234      H2237   1.045       .  S
N2234      H2238   1.045       .  S
C2239      C2240   1.405       .  A
C2239      C2244   1.403       .  A
C2239      H2246   1.084       .  S
C2240      C2241   1.415       .  A
C2241      C2242   1.401       .  A
C2241      N2248   1.432       .  S
C2242      C2243   1.409       .  A
C2242      H2247   1.084       .  S
C2243      C2244   1.423       .  A
C2244      N2245   1.433       .  S
N2245      H2249   1.045       .  S
N2245      H2250   1.045       .  S
N2248      H2251   1.045       .  S
N2248      H2252   1.045       .  S
C2253      C2258   1.407       .  A
C2253      H2260   1.084       .  S
C2255      C2256   1.404       .  A
C2256      C2257   1.405       .  A
C2256      H2261   1.083       .  S
C2257      C2258   1.420       .  A
C2258      N2259   1.438       .  S
N2259      H2263   1.046       .  S
N2259      H2264   1.046       .  S
N2262      H2265   1.046       .  S
C2267      C2268   1.414       .  A
C2267      C2272   1.407       .  A
C2267      H2274   1.083       .  S
C2268      C2269   1.419       .  A
C2269      C2270   1.419       .  A
C2269      N2276   1.437       .  S
C2270      C2271   1.411       .  A
C2270      H2275   1.083       .  S
C2271      C2272   1.417       .  A
N2273      H2277   1.046       .  S
N2273      H2278   1.044       .  S
N2276      H2279   1.046       .  S
N2276      H2280   1.046       .  S
C2281      C2282   1.413       .  A
C2281      C2286   1.408       .  A
C2281      H2288   1.083       .  S
C2282      C2283   1.420       .  A
C2283      C2284   1.415       .  A
C2283      N2290   1.438       .  S
C2284      C2285   1.408       .  A
C2284      H2289   1.083       .  S
C2285      C2286   1.416       .  A
C2286      N2287   1.433       .  S
N2287      H2291   1.044       .  S
N2287      H2292   1.046       .  S
N2290      H2293   1.046       .  S
N2290      H2294   1.046       .  S
C2295      C2296   1.405       .  A
C2295      C2300   1.404       .  A
C2295      H2302   1.084   1_565  S
C2296      C2297   1.418       .  A
C2297      C2298   1.421       .  A
C2297      N2304   1.437       .  S
C2298      C2299   1.410       .  A
C2298      H2303   1.083       .  S
C2299      C2300   1.421       .  A
C2300      N2301   1.433   1_565  S
N2301      H2305   1.045       .  S
N2301      H2306   1.045       .  S
N2304      H2307   1.045       .  S
N2304      H2308   1.046       .  S
C2309      C2310   1.414   1_554  A
C2309      C2314   1.426       .  A
C2309      H2316   1.084       .  S
C2310      C2311   1.429       .  A
C2311      C2312   1.418       .  A
C2311      N2318   1.433       .  S
C2312      C2313   1.412       .  A
C2312      H2317   1.083       .  S
C2313      C2314   1.430   1_556  A
C2314      N2315   1.431       .  S
N2315      H2319   1.045       .  S
N2315      H2320   1.045       .  S
N2318      H2321   1.044       .  S
N2318      H2322   1.046       .  S
C2323      C2324   1.412   1_556  A
C2323      C2328   1.427       .  A
C2323      H2330   1.083       .  S
C2324      C2325   1.419       .  A
C2325      C2326   1.418       .  A
C2325      N2332   1.432       .  S
C2326      C2327   1.412       .  A
C2326      H2331   1.083       .  S
C2327      C2328   1.423   1_554  A
C2328      N2329   1.431       .  S
N2329      H2333   1.046       .  S
N2329      H2334   1.045       .  S
N2332      H2335   1.045       .  S
N2332      H2336   1.046       .  S
C2337      C2338   1.403       .  A
C2337      C2342   1.405       .  A
C2337      H2344   1.084       .  S
C2338      C2339   1.416   1_554  A
C2339      C2340   1.401       .  A
C2339      N2346   1.433       .  S
C2340      C2341   1.407   1_556  A
C2340      H2345   1.084       .  S
C2341      C2342   1.417       .  A
C2342      N2343   1.438       .  S
N2343      H2347   1.046       .  S
N2343      H2348   1.046       .  S
N2346      H2349   1.045       .  S
N2346      H2350   1.045       .  S
C2351      C2352   1.406       .  A
C2351      C2356   1.391       .  A
C2351      H2358   1.084       .  S
C2352      C2353   1.411   1_556  A
C2353      C2354   1.399       .  A
C2353      N2360   1.433       .  S
C2354      C2355   1.405   1_554  A
C2354      H2359   1.084       .  S
C2355      C2356   1.413       .  A
C2356      N2357   1.433       .  S
N2357      H2361   1.045       .  S
N2357      H2362   1.046       .  S
N2360      H2363   1.046       .  S
N2360      H2364   1.046       .  S
C2365      C2366   1.408       .  A
C2365      C2370   1.408       .  A
C2365      H2372   1.083       .  S
C2366      C2367   1.413       .  A
C2367      C2368   1.419       .  A
C2367      N2374   1.431       .  S
C2368      C2369   1.410       .  A
C2368      H2373   1.084       .  S
C2369      C2370   1.413       .  A
C2370      N2371   1.439       .  S
N2371      H2375   1.046       .  S
N2371      H2376   1.046       .  S
N2374      H2377   1.045       .  S
N2374      H2378   1.046       .  S
C2379      C2380   1.407       .  A
C2379      C2384   1.412       .  A
C2379      H2386   1.083       .  S
C2380      C2381   1.424       .  A
C2381      C2382   1.416       .  A
C2381      N2388   1.431       .  S
C2382      C2383   1.412       .  A
C2382      H2387   1.084       .  S
C2383      C2384   1.423       .  A
C2384      N2385   1.438       .  S
N2385      H2389   1.046       .  S
N2385      H2390   1.045       .  S
N2388      H2391   1.045       .  S
N2388      H2392   1.045       .  S
C2393      C2394   1.407       .  A
C2393      C2398   1.413       .  A
C2393      H2400   1.084       .  S
C2394      C2395   1.420       .  A
C2395      C2396   1.424       .  A
C2396      C2397   1.413       .  A
C2396      H2401   1.083       .  S
C2397      C2398   1.424       .  A
C2398      N2399   1.438       .  S
N2399      H2403   1.046       .  S
N2399      H2404   1.046       .  S
N2402      H2405   1.045       .  S
N2402      H2406   1.046       .  S
C2407      C2408   1.402       .  A
C2407      C2412   1.399       .  A
C2408      C2409   1.408       .  A
C2409      C2410   1.393       .  A
C2409      N2416   1.433       .  S
C2410      H2415   1.084       .  S
N2413      H2418   1.046   1_455  S
N2416      H2419   1.046       .  S
N2416      H2420   1.046       .  S
C2421      C2422   1.403       .  A
C2421      C2426   1.398       .  A
C2421      H2428   1.083       .  S
C2422      C2423   1.414       .  A
C2423      C2424   1.392       .  A
C2423      N2430   1.433       .  S
C2424      C2425   1.397       .  A
C2424      H2429   1.085       .  S
C2425      C2426   1.409       .  A
C2426      N2427   1.436       .  S
N2427      H2431   1.046       .  S
N2427      H2432   1.045       .  S
N2430      H2433   1.046       .  S
N2430      H2434   1.046       .  S
C2435      C2436   1.406       .  A
C2435      C2440   1.421       .  A
C2435      H2442   1.083       .  S
C2436      C2437   1.411       .  A
C2437      N2444   1.433       .  S
C2438      C2439   1.409       .  A
C2438      H2443   1.083       .  S
C2440      N2441   1.437   1_565  S
N2441      H2445   1.046   1_545  S
N2444      H2447   1.046       .  S
