geometry optimzed in LAMMPS
_audit_creation_date              2020-12-01 
_audit_creation_method            'lammps2cif' 
_symmetry_space_group_name_H-M    'P1' 
_symmetry_Int_Tables_number       1 
_symmetry_cell_setting            triclinic 
loop_ 
_symmetry_equiv_pos_as_xyz 
  x,y,z 
_cell_length_a                    46.04349998 
_cell_length_b                    46.04831915247132 
_cell_length_c                    46.05000795173758 
_cell_angle_alpha                 89.90577773027569 
_cell_angle_beta                  89.90784388914905 
_cell_angle_gamma                 89.98474354893717 
loop_ 
_atom_site_label 
_atom_site_type_symbol 
_atom_site_fract_x 
_atom_site_fract_y 
_atom_site_fract_z 
_atom_site_charge 
O1          O  0.66254509  0.28219988  0.02197457    -0.72900
O2          O  0.66226951  0.36959236  0.02333275    -0.73900
O3          O  0.61891694  0.32619731  0.02448137    -0.62500
O4          O  0.70570770  0.32612682  0.02126428    -0.70900
O5          O  0.70394090  0.32655503  0.97322573    -0.70500
O6          O  0.61687899  0.32679290  0.97644889    -0.61700
O7          O  0.66075970  0.36970288  0.97520924    -0.74200
O8          O  0.66071789  0.28301145  0.97393619    -0.73000
Cu9        Cu  0.66234699  0.32590724  0.02445177     1.04600
Cu10       Cu  0.66043329  0.32646560  0.97306169     1.04300
C11         C  0.66226765  0.26875091  0.99767609     0.93300
C12         C  0.66182592  0.38342606  0.99924887     0.92400
C13         C  0.60407317  0.32722589  0.00111088     0.84600
C14         C  0.71866498  0.32670319  0.99671837     0.90800
O15         O  0.32732095  0.38560585  0.98408080    -0.72900
O16         O  0.32902865  0.29892671  0.98275261    -0.73900
O17         O  0.28470639  0.34160680  0.98344388    -0.62500
O18         O  0.37143785  0.34296117  0.98339886    -0.70900
O19         O  0.37161335  0.34068711  0.03153471    -0.70500
O20         O  0.28434921  0.34131405  0.03151492    -0.61700
O21         O  0.32811427  0.29765560  0.03082107    -0.74200
O22         O  0.32830469  0.38469804  0.03220384    -0.73000
Cu23       Cu  0.32808766  0.34229050  0.98178497     1.04600
Cu24       Cu  0.32804412  0.34108206  0.03323565     1.04300
C25         C  0.32785254  0.39894549  0.00836128     0.93300
C26         C  0.32914990  0.28448296  0.00644052     0.92400
C27         C  0.27065731  0.34156509  0.00737202     0.84600
C28         C  0.38526836  0.34172546  0.00737482     0.90800
O29         O  0.71446010  0.65752238  0.01827825    -0.72900
O30         O  0.62731767  0.66031664  0.01772830    -0.73900
O31         O  0.66987355  0.61554994  0.01763583    -0.62500
O32         O  0.67225851  0.70183392  0.01894338    -0.70900
O33         O  0.67207983  0.70308681  0.97087391    -0.70500
O34         O  0.67018992  0.61581457  0.96946029    -0.61700
O35         O  0.62753531  0.66033948  0.96955969    -0.74200
O36         O  0.71461898  0.65875748  0.97017657    -0.73000
Cu37       Cu  0.67092408  0.65871428  0.01977709     1.04600
Cu38       Cu  0.67110788  0.65948195  0.96829793     1.04300
C39         C  0.72837099  0.65821729  0.99424207     0.93300
C40         C  0.61364633  0.66092585  0.99358075     0.92400
C41         C  0.66998650  0.60193649  0.99353584     0.84600
C42         C  0.67258959  0.71627514  0.99530342     0.90800
O43         O  0.34010981  0.71932101  0.02807669    -0.72900
O44         O  0.33663575  0.63204734  0.02936431    -0.73900
O45         O  0.38196475  0.67360538  0.02638846    -0.62500
O46         O  0.29521253  0.67724336  0.03145889    -0.70900
O47         O  0.29226698  0.67630921  0.98342692    -0.70500
O48         O  0.37954478  0.67398455  0.97834522    -0.61700
O49         O  0.33486299  0.63172967  0.98125530    -0.74200
O50         O  0.33659480  0.71856245  0.98009443    -0.73000
Cu51       Cu  0.33863886  0.67562396  0.03048475     1.04600
Cu52       Cu  0.33577698  0.67515792  0.97910906     1.04300
C53         C  0.33816365  0.73276597  0.00382370     0.93300
C54         C  0.33521891  0.61810011  0.00542437     0.92400
C55         C  0.39456906  0.67290436  0.00166651     0.84600
C56         C  0.27995326  0.67704646  0.00833693     0.90800
O57         O  0.71370381  0.96774914  0.66422388    -0.72900
O58         O  0.62651259  0.96673553  0.66344811    -0.73900
O59         O  0.67053467  0.97026165  0.62027995    -0.62500
O60         O  0.66944317  0.96460209  0.70779210    -0.70900
O61         O  0.66877745  0.01263504  0.71009412    -0.70500
O62         O  0.66895332  0.01831397  0.62372645    -0.61700
O63         O  0.62577913  0.01473459  0.66688825    -0.74200
O64         O  0.71279438  0.01577862  0.66712429    -0.73000
Cu65       Cu  0.67012271  0.96560276  0.66383906     1.04600
Cu66       Cu  0.66915212  0.01697103  0.66705395     1.04300
C67         C  0.72708379  0.99201022  0.66562742     0.93300
C68         C  0.61233902  0.99054656  0.66519129     0.92400
C69         C  0.66935434  0.99531921  0.60831071     0.84600
C70         C  0.66859911  0.98796947  0.72278374     0.90800
O71         O  0.29391188  0.01403056  0.66561300    -0.72900
O72         O  0.38071101  0.01230083  0.66411108    -0.77500
O73         O  0.33691504  0.01039842  0.62182027    -0.62500
O74         O  0.33788991  0.01653346  0.70802945    -0.70900
O75         O  0.33750141  0.96861740  0.71235663    -0.70500
O76         O  0.33491250  0.96233115  0.62483146    -0.61700
O77         O  0.37986584  0.96422362  0.66767437    -0.74200
O78         O  0.29292616  0.96612277  0.67001490    -0.73000
Cu79       Cu  0.33740203  0.01491760  0.66479391     1.04600
Cu80       Cu  0.33630783  0.96357392  0.66882585     1.04300
C81         C  0.27960559  0.99038954  0.66815549     0.93300
C82         C  0.39399677  0.98799690  0.66549949     0.92400
C83         C  0.33557823  0.98560486  0.60959407     0.84600
C84         C  0.33765642  0.99385119  0.72396812     0.90800
O85         O  0.33021430  0.02726534  0.29113428    -0.72900
O86         O  0.32780899  0.02092763  0.37796657    -0.73900
O87         O  0.37273122  0.02554612  0.33608385    -0.62500
O88         O  0.28552167  0.02226234  0.33327240    -0.70900
O89         O  0.28748987  0.97430208  0.33074931    -0.70500
O90         O  0.37417119  0.97759006  0.33149634    -0.61700
O91         O  0.33033670  0.97303748  0.37487996    -0.74200
O92         O  0.33113064  0.97932724  0.28776101    -0.73000
Cu93       Cu  0.32903975  0.02568107  0.33472601     1.04600
Cu94       Cu  0.33089400  0.97441847  0.33112277     1.04300
C95         C  0.33057625  0.00430960  0.27559493     0.93300
C96         C  0.32866446  0.99607533  0.39029195     0.92400
C97         C  0.38717163  0.00192951  0.33402386     0.84600
C98         C  0.27265416  0.99769376  0.33172055     0.90800
O99         O  0.61925664  0.02802364  0.33038738    -0.72900
O100        O  0.70600192  0.03088416  0.33425495    -0.73900
O101        O  0.66452465  0.02757221  0.28843986    -0.62500
O102        O  0.66044446  0.03066451  0.37605341    -0.70900
O103        O  0.66185426  0.98259718  0.37688956    -0.70500
O104        O  0.66614324  0.97956682  0.29066895    -0.61700
O105        O  0.70753914  0.98282526  0.33579572    -0.74200
O106        O  0.62074450  0.97998897  0.33190225    -0.73000
Cu107      Cu  0.66255060  0.03101740  0.33218747     1.04600
Cu108      Cu  0.66416794  0.97964448  0.33386405     1.04300
C109        C  0.60616887  0.00357027  0.33080661     0.93300
C110        C  0.72057462  0.00733240  0.33569063     0.92400
C111        C  0.66566464  0.00290341  0.27570451     0.84600
C112        C  0.66017106  0.00676249  0.39027979     0.90800
O113        O  0.02947071  0.62009576  0.67103687    -0.72900
O114        O  0.02999617  0.70698981  0.66469628    -0.73900
O115        O  0.03165129  0.66665119  0.71155301    -0.62500
O116        O  0.02802920  0.66051958  0.62476633    -0.70900
O117        O  0.97985784  0.66168505  0.62669225    -0.70500
O118        O  0.98361387  0.66709554  0.71358112    -0.61700
O119        O  0.98188029  0.70735122  0.66672361    -0.74200
O120        O  0.98141621  0.62058734  0.67283707    -0.73000
Cu121      Cu  0.03146150  0.66352188  0.66802142     1.04600
Cu122      Cu  0.98002712  0.66413087  0.67012853     1.04300
C123        C  0.00531769  0.60647542  0.67245939     0.93300
C124        C  0.00594852  0.72086056  0.66408531     0.92400
C125        C  0.00822258  0.66788456  0.72641062     0.84600
C126        C  0.00341025  0.66067844  0.61203468     0.90800
O127        O  0.02896467  0.33123705  0.61860089    -0.72900
O128        O  0.02690811  0.32894046  0.70554141    -0.73900
O129        O  0.02786336  0.28662062  0.66078569    -0.62500
O130        O  0.02802042  0.37349895  0.66355652    -0.70900
O131        O  0.97990177  0.37388515  0.66075954    -0.70500
O132        O  0.97974573  0.28650786  0.66113830    -0.61700
O133        O  0.97880875  0.33067941  0.70467326    -0.74200
O134        O  0.98088878  0.33022235  0.61743817    -0.73000
Cu135      Cu  0.02957541  0.33003551  0.66213800     1.04600
Cu136      Cu  0.97812392  0.33026962  0.66096367     1.04300
C137        C  0.00529601  0.33092648  0.60416994     0.93300
C138        C  0.00261831  0.33007682  0.71892425     0.92400
C139        C  0.00386663  0.27272852  0.66055998     0.84600
C140        C  0.00404878  0.38742981  0.66257261     0.90800
O141        O  0.02055710  0.66682172  0.37931559    -0.72900
O142        O  0.01968178  0.66959506  0.29261196    -0.73900
O143        O  0.01926004  0.71197768  0.33776422    -0.62500
O144        O  0.02055626  0.62467598  0.33450594    -0.70900
O145        O  0.97247930  0.62446648  0.33472731    -0.70500
O146        O  0.97111191  0.71100815  0.33811550    -0.61700
O147        O  0.97149437  0.66950360  0.29297439    -0.74200
O148        O  0.97246371  0.66601162  0.37986951    -0.73000
Cu149      Cu  0.02171695  0.66831785  0.33599692     1.04600
Cu150      Cu  0.97024164  0.66772237  0.33643040     1.04300
C151        C  0.99666340  0.66599932  0.39341044     0.93300
C152        C  0.99550684  0.66983987  0.27905271     0.92400
C153        C  0.99486738  0.72526072  0.33861591     0.84600
C154        C  0.99654477  0.61071985  0.33413988     0.90800
O155        O  0.97303077  0.33480379  0.28640940    -0.72900
O156        O  0.97893534  0.33267588  0.37276803    -0.73900
O157        O  0.97480680  0.37739454  0.33081876    -0.62500
O158        O  0.97774084  0.29039683  0.32880031    -0.70900
O159        O  0.02577475  0.29205389  0.32646620    -0.70500
O160        O  0.02277619  0.37874098  0.32591100    -0.61700
O161        O  0.02696326  0.33576765  0.36997868    -0.74200
O162        O  0.02099645  0.33539139  0.28280252    -0.73000
Cu163      Cu  0.97446707  0.33377223  0.32977990     1.04600
Cu164      Cu  0.02582353  0.33553519  0.32616873     1.04300
C165        C  0.99595781  0.33536720  0.27080557     0.93300
C166        C  0.00370364  0.33384384  0.38508520     0.92400
C167        C  0.99844043  0.39175557  0.32841610     0.84600
C168        C  0.00226341  0.27740969  0.32769537     0.90800
O169        O  0.99790769  0.31478515  0.95207272    -0.72900
O170        O  0.99181744  0.31564877  0.03891708    -0.73900
O171        O  0.95152290  0.31429505  0.99261718    -0.62500
O172        O  0.03831089  0.31596100  0.99889502    -0.70900
O173        O  0.03750798  0.36406631  0.99739527    -0.70500
O174        O  0.95052072  0.36244323  0.99314783    -0.61700
O175        O  0.99166798  0.36374019  0.03840030    -0.74200
O176        O  0.99621712  0.36282336  0.95155961    -0.73000
Cu177      Cu  0.99494132  0.31349742  0.99557565     1.04600
Cu178      Cu  0.99396959  0.36493428  0.99502241     1.04300
C179        C  0.99770222  0.33871567  0.93794778     0.93300
C180        C  0.99087463  0.33983619  0.05246880     0.92400
C181        C  0.93725039  0.33809116  0.99258278     0.84600
C182        C  0.05165728  0.34026994  0.99949267     0.90800
O183        O  0.00243097  0.64956289  0.04669043    -0.72900
O184        O  0.00761554  0.64984828  0.95973466    -0.73900
O185        O  0.04839157  0.65112279  0.00612029    -0.62500
O186        O  0.96162678  0.64818777  0.00092554    -0.70900
O187        O  0.95961349  0.69622495  0.00135768    -0.70500
O188        O  0.04667595  0.69916822  0.00610780    -0.61700
O189        O  0.00546397  0.69788569  0.95992069    -0.74200
O190        O  0.00082544  0.69761997  0.04688402    -0.73000
Cu191      Cu  0.00507498  0.64803076  0.00330794     1.04600
Cu192      Cu  0.00310475  0.69940143  0.00349201     1.04300
C193        C  0.00094881  0.67350480  0.06061383     0.93300
C194        C  0.00712760  0.67397320  0.94595914     0.92400
C195        C  0.06133348  0.67562660  0.00744948     0.84600
C196        C  0.94676944  0.67163541  0.00072503     0.90800
O197        O  0.95295653  0.00314127  0.31406551    -0.72900
O198        O  0.03972887  0.99794151  0.31298676    -0.73900
O199        O  0.99397079  0.95703155  0.31544423    -0.62500
O200        O  0.99885164  0.04407177  0.31200638    -0.70900
O201        O  0.99886884  0.04552248  0.36008679    -0.70500
O202        O  0.99483933  0.95891891  0.36346465    -0.61700
O203        O  0.04035395  0.00019246  0.36104045    -0.74200
O204        O  0.95335383  0.00453203  0.36212197    -0.73000
Cu205      Cu  0.99632858  0.00047160  0.31194310     1.04600
Cu206      Cu  0.99686042  0.00232986  0.36332947     1.04300
C207        C  0.93933469  0.00482972  0.33820058     0.93300
C208        C  0.05384871  0.99837368  0.33683579     0.92400
C209        C  0.99394532  0.94412642  0.34006302     0.84600
C210        C  0.99948778  0.05860446  0.33563847     0.90800
O211        O  0.96021900  0.99816746  0.64001554    -0.72900
O212        O  0.04744837  0.99503241  0.64086091    -0.73900
O213        O  0.00250296  0.95339345  0.63966437    -0.62500
O214        O  0.00532890  0.03988557  0.64063480    -0.70900
O215        O  0.00440905  0.03970686  0.68870739    -0.70500
O216        O  0.00229675  0.95246373  0.68774038    -0.61700
O217        O  0.04673964  0.99482857  0.68893044    -0.74200
O218        O  0.95978886  0.99718057  0.68809129    -0.73000
Cu219      Cu  0.00388131  0.99665708  0.63865181     1.04600
Cu220      Cu  0.00327659  0.99604196  0.69005679     1.04300
C221        C  0.94613767  0.99810348  0.66396989     0.93300
C222        C  0.06094705  0.99429884  0.66508619     0.92400
C223        C  0.00227269  0.93909257  0.66342903     0.84600
C224        C  0.00518642  0.05364337  0.66467928     0.90800
O225        O  0.69449527  0.99240016  0.95588290    -0.72900
O226        O  0.69347621  0.99175160  0.04337169    -0.73900
O227        O  0.69466487  0.94907167  0.99927591    -0.62500
O228        O  0.69397070  0.03575514  0.99966736    -0.70900
O229        O  0.64589029  0.03560079  0.99925104    -0.70500
O230        O  0.64653997  0.94821193  0.99925958    -0.61700
O231        O  0.64537924  0.99163770  0.04274574    -0.74200
O232        O  0.64639242  0.99193386  0.95591369    -0.73000
Cu233      Cu  0.69581373  0.99230619  0.99961830     1.04600
Cu234      Cu  0.64437914  0.99187149  0.99930796     1.04300
C235        C  0.67043993  0.99192852  0.94204518     0.93300
C236        C  0.66919604  0.99130949  0.05691477     0.92400
C237        C  0.67089711  0.93485150  0.99897390     0.84600
C238        C  0.66992449  0.04955351  0.99914518     0.90800
O239        O  0.34990116  0.00933185  0.04316044    -0.72900
O240        O  0.35237376  0.00914109  0.95670118    -0.73900
O241        O  0.35130905  0.05219621  0.00001506    -0.62500
O242        O  0.35128164  0.96599464  0.00023665    -0.70900
O243        O  0.30322092  0.96540319  0.99917638    -0.70500
O244        O  0.30321264  0.05302199  0.99899564    -0.61700
O245        O  0.30430662  0.00933968  0.95526598    -0.74200
O246        O  0.30182939  0.00946087  0.04271495    -0.73000
Cu247      Cu  0.35276541  0.00915495  0.00001997     1.04600
Cu248      Cu  0.30135647  0.00928558  0.99892922     1.04300
C249        C  0.32575244  0.00954799  0.05679295     0.93300
C250        C  0.32880214  0.00930311  0.94213675     0.92400
C251        C  0.32754543  0.06639315  0.99998187     0.84600
C252        C  0.32747013  0.95183115  0.99998830     0.90800
C253        C  0.02863171  0.19921167  0.32225157    -0.27600
C254        C  0.00358175  0.18399055  0.33055673     0.02000
C255        C  0.97825875  0.19953357  0.33769691     0.30100
C256        C  0.97820800  0.22982145  0.33654992    -0.19400
C257        C  0.00323175  0.24525507  0.32831279    -0.28800
C258        C  0.02868085  0.22960753  0.32120683     0.44100
C259        C  0.00386204  0.15191003  0.33191731     0.05300
O260        O  0.95333914  0.18528025  0.34571847    -0.57300
H261        H  0.95844913  0.24123643  0.34230375     0.18300
O262        O  0.05350001  0.24365659  0.31254711    -0.64000
H263        H  0.04831807  0.18749734  0.31685160     0.16700
C264        C  0.01058634  0.13513089  0.30730935     0.29000
C265        C  0.00895591  0.10480362  0.30875941    -0.24900
C266        C  0.00102648  0.09073066  0.33470931    -0.24200
C267        C  0.99457895  0.10771305  0.35942541     0.40400
C268        C  0.99620859  0.13796706  0.35789182    -0.26700
O269        O  0.01747815  0.14822920  0.28142369    -0.58500
H270        H  0.01394407  0.09230635  0.28947431     0.16000
O271        O  0.98626113  0.09510287  0.38513071    -0.60000
H272        H  0.99113945  0.15066339  0.37703829     0.14500
H273        H  0.06564796  0.24503131  0.33025188     0.46300
H274        H  0.03888675  0.14658554  0.27973058     0.41700
H275        H  0.96474195  0.09430795  0.38435393     0.45200
H276        H  0.94349637  0.18036303  0.32724857     0.36700
C277        C  0.98477381  0.36518145  0.13091255    -0.27600
C278        C  0.98886618  0.33898918  0.14578379     0.02000
C279        C  0.99270060  0.31314039  0.13018555     0.30100
C280        C  0.99276003  0.31368220  0.09986455    -0.19400
C281        C  0.98929916  0.33996433  0.08462338    -0.28800
C282        C  0.98501118  0.36588392  0.10052480     0.44100
C283        C  0.99040036  0.33886198  0.17764907     0.05300
O284        O  0.99651758  0.28725335  0.14445368    -0.57300
H285        H  0.99603603  0.29346832  0.08831554     0.18300
O286        O  0.98066237  0.39193868  0.08671844    -0.64000
H287        H  0.98174003  0.38517343  0.14292766     0.16700
C288        C  0.01702480  0.34340999  0.19169568     0.29000
C289        C  0.01855836  0.34198260  0.22196208    -0.24900
C290        C  0.99359084  0.33635339  0.23869907    -0.24200
C291        C  0.96676477  0.33208825  0.22434951     0.40400
C292        C  0.96542266  0.33321591  0.19401114    -0.26700
O293        O  0.04178656  0.34861605  0.17593033    -0.58500
H294        H  0.03937840  0.34543883  0.23231342     0.16000
O295        O  0.94188111  0.32597790  0.23958606    -0.60000
H296        H  0.94487072  0.32950654  0.18319578     0.14500
H297        H  0.99997336  0.40145987  0.08635912     0.46300
H298        H  0.04209926  0.36992912  0.17277363     0.41700
H299        H  0.93190214  0.34491847  0.24192288     0.45200
H300        H  0.01776663  0.28562714  0.14758606     0.36700
C301        C  0.97121404  0.53208303  0.33240137    -0.27600
C302        C  0.99769841  0.51705300  0.33230635     0.02000
C303        C  0.02383143  0.53301205  0.33242854     0.30100
C304        C  0.02313250  0.56339240  0.33265491    -0.19400
C305        C  0.99658898  0.57849419  0.33318244    -0.28800
C306        C  0.97044498  0.56240296  0.33299783     0.44100
C307        C  0.99769812  0.48482200  0.33151864     0.05300
O308        O  0.05020928  0.51915571  0.33262517    -0.57300
H309        H  0.04353105  0.57510702  0.33273115     0.18300
O310        O  0.94391348  0.57593340  0.33378398    -0.64000
H311        H  0.95088731  0.52028038  0.33166693     0.16700
C312        C  0.98014437  0.46841753  0.35061707     0.29000
C313        C  0.98009802  0.43806200  0.34894534    -0.24900
C314        C  0.99781234  0.42366341  0.32882785    -0.24200
C315        C  0.01547311  0.43994506  0.30989624     0.40400
C316        C  0.01496339  0.47026938  0.31101129    -0.26700
O317        O  0.96411062  0.48180065  0.37189292    -0.58500
H318        H  0.96679233  0.42571823  0.36397056     0.16000
O319        O  0.03243298  0.42642571  0.28946049    -0.60000
H320        H  0.02799769  0.48245024  0.29563800     0.14500
H321        H  0.93756441  0.57710601  0.31325436     0.46300
H322        H  0.94351687  0.47913142  0.36617985     0.41700
H323        H  0.05220855  0.42590259  0.29793625     0.45200
H324        H  0.05517223  0.51678271  0.35342436     0.36700
C325        C  0.99296238  0.86622891  0.36829198    -0.27600
C326        C  0.99389167  0.85055274  0.34227629     0.02000
C327        C  0.99446439  0.86557725  0.31569022     0.30100
C328        C  0.99417096  0.89592731  0.31532639    -0.19400
C329        C  0.99336644  0.91189415  0.34132826    -0.28800
C330        C  0.99266576  0.89663970  0.36803235     0.44100
C331        C  0.99372093  0.81848578  0.34285306     0.05300
O332        O  0.99541431  0.85071812  0.28991095    -0.57300
H333        H  0.99479000  0.90693367  0.29452830     0.18300
O334        O  0.99110807  0.91108466  0.39401101    -0.64000
H335        H  0.99216644  0.85482387  0.38888005     0.16700
C336        C  0.01689965  0.80273657  0.35501019     0.29000
C337        C  0.01718455  0.77237115  0.35328005    -0.24900
C338        C  0.99404386  0.75731171  0.34033572    -0.24200
C339        C  0.97026631  0.77318857  0.32928595     0.40400
C340        C  0.97046169  0.80352674  0.33025322    -0.26700
O341        O  0.03988049  0.81689332  0.36754205    -0.58500
H342        H  0.03545601  0.76057861  0.36226634     0.16000
O343        O  0.94731450  0.75937708  0.31631838    -0.60000
H344        H  0.95241129  0.81547678  0.32101641     0.14500
H345        H  0.01145959  0.91251133  0.40087344     0.46300
H346        H  0.03590986  0.81638045  0.38872257     0.41700
H347        H  0.93207793  0.75820720  0.33152178     0.45200
H348        H  0.01632630  0.84933073  0.28492771     0.36700
C349        C  0.97364318  0.68329331  0.20085203    -0.27600
C350        C  0.99643036  0.66968452  0.18592927     0.02000
C351        C  0.01878251  0.65606921  0.20164434     0.30100
C352        C  0.01838061  0.65661808  0.23199900    -0.19400
C353        C  0.99547938  0.67004140  0.24703897    -0.28800
C354        C  0.97292800  0.68338465  0.23120718     0.44100
C355        C  0.99708406  0.67055532  0.15393549     0.05300
O356        O  0.04163250  0.64318807  0.18747227    -0.57300
H357        H  0.03588126  0.64621690  0.24379825     0.18300
O358        O  0.95035040  0.69696390  0.24512695    -0.64000
H359        H  0.95636175  0.69386558  0.18887930     0.16700
C360        C  0.99549702  0.64490720  0.13753931     0.29000
C361        C  0.99677099  0.64624516  0.10726279    -0.24900
C362        C  0.99943517  0.67304708  0.09277620    -0.24200
C363        C  0.00079435  0.69879773  0.10940950     0.40400
C364        C  0.99938974  0.69736331  0.13971595    -0.26700
O365        O  0.99256288  0.61842642  0.15090635    -0.58500
H366        H  0.99554000  0.62615131  0.09513110     0.16000
O367        O  0.00352894  0.72548800  0.09642994    -0.60000
H368        H  0.00057278  0.71724355  0.15222568     0.14500
H369        H  0.95725605  0.71701554  0.24882250     0.46300
H370        H  0.97146072  0.61625390  0.15460008     0.41700
H371        H  0.02472722  0.72922977  0.09561099     0.45200
H372        H  0.03843153  0.62199812  0.18958721     0.36700
C373        C  0.98611069  0.31577975  0.46330139    -0.27600
C374        C  0.00612351  0.33311568  0.47830681     0.02000
C375        C  0.02610709  0.35006949  0.46237337     0.30100
C376        C  0.02572164  0.34958475  0.43195538    -0.19400
C377        C  0.00513012  0.33283811  0.41705275    -0.28800
C378        C  0.98538900  0.31567012  0.43299034     0.44100
C379        C  0.00595865  0.33312727  0.51052222     0.05300
O380        O  0.04571445  0.36759973  0.47629163    -0.57300
H381        H  0.04096353  0.36298774  0.42000494     0.18300
O382        O  0.96542862  0.29846198  0.41915154    -0.64000
H383        H  0.97105456  0.30208971  0.47514669     0.16700
C384        C  0.98015311  0.33825886  0.52615880     0.29000
C385        C  0.98031415  0.33745474  0.55654113    -0.24900
C386        C  0.00598911  0.33155797  0.57194370    -0.24200
C387        C  0.03185463  0.32648270  0.55617853     0.40400
C388        C  0.03164674  0.32730214  0.52579332    -0.26700
O389        O  0.95493477  0.34528868  0.51193023    -0.58500
H390        H  0.96023300  0.34177681  0.56804146     0.16000
O391        O  0.05749593  0.32060709  0.57011842    -0.60000
H392        H  0.05160299  0.32293928  0.51408512     0.14500
H393        H  0.97587720  0.28016308  0.41469609     0.46300
H394        H  0.94229944  0.32793546  0.51377111     0.41700
H395        H  0.05821527  0.29914940  0.57185267     0.45200
H396        H  0.03485375  0.38558278  0.48100204     0.36700
C397        C  0.02447729  0.32255742  0.79814977    -0.27600
C398        C  0.00062431  0.33516567  0.81224508     0.02000
C399        C  0.97748529  0.34617935  0.79563751     0.30100
C400        C  0.97821824  0.34405567  0.76530996    -0.19400
C401        C  0.00209300  0.33136953  0.75106935    -0.28800
C402        C  0.02549665  0.32084245  0.76783267     0.44100
C403        C  0.99989943  0.33613388  0.84432699     0.05300
O404        O  0.95401461  0.35890979  0.80887003    -0.57300
H405        H  0.96018688  0.35266900  0.75289854     0.18300
O406        O  0.04904847  0.30794894  0.75491062    -0.64000
H407        H  0.04246265  0.31409848  0.81074044     0.16700
C408        C  0.99967089  0.31034056  0.86067416     0.29000
C409        C  0.99901081  0.31153040  0.89102412    -0.24900
C410        C  0.99884187  0.33832717  0.90567625    -0.24200
C411        C  0.99921963  0.36421866  0.88908159     0.40400
C412        C  0.99972078  0.36292423  0.85869475    -0.26700
O413        O  0.99901297  0.28385343  0.84709368    -0.58500
H414        H  0.99847796  0.29130869  0.90306208     0.16000
O415        O  0.99952965  0.39093290  0.90219899    -0.60000
H416        H  0.00015788  0.38292852  0.84627289     0.14500
H417        H  0.06421034  0.32322949  0.75420765     0.46300
H418        H  0.01932459  0.27673277  0.84752747     0.41700
H419        H  0.97888099  0.39699458  0.90318877     0.45200
H420        H  0.94017363  0.34283175  0.81254514     0.36700
C421        C  0.02856093  0.19455234  0.65046448    -0.27600
C422        C  0.00423910  0.17920679  0.66043024     0.02000
C423        C  0.97947225  0.19459916  0.66958017     0.30100
C424        C  0.97946004  0.22499469  0.66916880    -0.19400
C425        C  0.00406119  0.24052773  0.65982532    -0.28800
C426        C  0.02869784  0.22493539  0.65020732     0.44100
C427        C  0.00501214  0.14713679  0.66150994     0.05300
O428        O  0.95519707  0.18010898  0.67903773    -0.57300
H429        H  0.96026915  0.23642174  0.67658195     0.18300
O430        O  0.05275356  0.23910362  0.63975552    -0.64000
H431        H  0.04770496  0.18291699  0.64323515     0.16700
C432        C  0.00908753  0.13074077  0.63612723     0.29000
C433        C  0.00921095  0.10041484  0.63758265    -0.24900
C434        C  0.00568109  0.08586184  0.66426775    -0.24200
C435        C  0.00206196  0.10247564  0.68978445     0.40400
C436        C  0.00173004  0.13283527  0.68821162    -0.26700
O437        O  0.01177556  0.14417503  0.60964353    -0.58500
H438        H  0.01197833  0.08831141  0.61761673     0.16000
O439        O  0.99886590  0.08941245  0.71638194    -0.60000
H440        H  0.99891922  0.14531008  0.70795152     0.14500
H441        H  0.06678236  0.23917996  0.65606650     0.46300
H442        H  0.03282844  0.14368426  0.60510747     0.41700
H443        H  0.97759357  0.08813038  0.71955888     0.45200
H444        H  0.94458489  0.17465116  0.66115045     0.36700
C445        C  0.02101386  0.64577964  0.53314155    -0.27600
C446        C  0.00069216  0.66358935  0.51899791     0.02000
C447        C  0.98096916  0.67998568  0.53571620     0.30100
C448        C  0.98155215  0.67814156  0.56600975    -0.19400
C449        C  0.00217428  0.66069867  0.58010308    -0.28800
C450        C  0.02199877  0.64442652  0.56345508     0.44100
C451        C  0.99982412  0.66444564  0.48685524     0.05300
O452        O  0.96135361  0.69823134  0.52267338    -0.57300
H453        H  0.96640029  0.69107361  0.57855450     0.18300
O454        O  0.04217712  0.62686403  0.57656571    -0.64000
H455        H  0.03597171  0.63261027  0.52063949     0.16700
C456        C  0.02503505  0.66997897  0.47043190     0.29000
C457        C  0.02362318  0.67038409  0.44009796    -0.24900
C458        C  0.99727017  0.66529164  0.42556901    -0.24200
C459        C  0.97201581  0.65984725  0.44213018     0.40400
C460        C  0.97351721  0.65927272  0.47244305    -0.26700
O461        O  0.05087502  0.67620469  0.48386789    -0.58500
H462        H  0.04327713  0.67498329  0.42797126     0.16000
O463        O  0.94587567  0.65429608  0.42902871    -0.60000
H464        H  0.95402586  0.65449736  0.48476994     0.14500
H465        H  0.03177038  0.60849576  0.58087166     0.46300
H466        H  0.06323520  0.65880526  0.48091261     0.41700
H467        H  0.93559450  0.67321969  0.42866937     0.45200
H468        H  0.97180272  0.71688963  0.52012466     0.36700
C469        C  0.98579791  0.46678450  0.65006823    -0.27600
C470        C  0.00576188  0.48055384  0.66854202     0.02000
C471        C  0.02493044  0.46343169  0.68515895     0.30100
C472        C  0.02429171  0.43312143  0.68269805    -0.19400
C473        C  0.00440659  0.41941327  0.66418259    -0.28800
C474        C  0.98498947  0.43647216  0.64784669     0.44100
C475        C  0.00601599  0.51274036  0.67047668     0.05300
O476        O  0.04315402  0.47607519  0.70503036    -0.57300
H477        H  0.03895588  0.42024706  0.69586016     0.18300
O478        O  0.96541964  0.42378542  0.62936898    -0.64000
H479        H  0.97093495  0.47963049  0.63711189     0.16700
C480        C  0.03167679  0.52874634  0.66583957     0.29000
C481        C  0.03120546  0.55908130  0.66737190    -0.24900
C482        C  0.00521646  0.57419175  0.67285680    -0.24200
C483        C  0.97948215  0.55807307  0.67741959     0.40400
C484        C  0.98006654  0.52769393  0.67615053    -0.26700
O485        O  0.05720892  0.51502874  0.65894532    -0.58500
H486        H  0.05123214  0.57080248  0.66346017     0.16000
O487        O  0.95351032  0.57165877  0.68273902    -0.60000
H488        H  0.96010665  0.51571998  0.67966697     0.14500
H489        H  0.97595812  0.42149764  0.61071600     0.46300
H490        H  0.05721988  0.51354134  0.63746534     0.41700
H491        H  0.95226829  0.57327533  0.70417803     0.45200
H492        H  0.06314275  0.47198978  0.69804268     0.36700
C493        C  0.00649913  0.85963896  0.68570327    -0.27600
C494        C  0.00432291  0.84580551  0.65871975     0.02000
C495        C  0.00077747  0.86254889  0.63346175     0.30100
C496        C  0.99976393  0.89282589  0.63540544    -0.19400
C497        C  0.00234683  0.90691516  0.66241127    -0.28800
C498        C  0.00570705  0.88990108  0.68772987     0.44100
C499        C  0.00578340  0.81384215  0.65747152     0.05300
O500        O  0.99860780  0.84954025  0.60677784    -0.57300
H501        H  0.99717222  0.90526785  0.61559411     0.18300
O502        O  0.00826812  0.90247261  0.71458085    -0.64000
H503        H  0.00889357  0.84685996  0.70533770     0.16700
C504        C  0.03049470  0.79904327  0.66758353     0.29000
C505        C  0.03058270  0.76871387  0.66882919    -0.24900
C506        C  0.00598986  0.75275679  0.66052050    -0.24200
C507        C  0.98164872  0.76764208  0.64925410     0.40400
C508        C  0.98176028  0.79799281  0.64768793    -0.26700
O509        O  0.05478146  0.81412348  0.67591505    -0.58500
H510        H  0.04968223  0.75772807  0.67707830     0.16000
O511        O  0.95793561  0.75275557  0.63912679    -0.60000
H512        H  0.96274111  0.80921946  0.63955670     0.14500
H513        H  0.02945327  0.90366646  0.71822400     0.46300
H514        H  0.05431683  0.81414883  0.69745332     0.41700
H515        H  0.94337582  0.75374237  0.65498096     0.45200
H516        H  0.01882294  0.84827598  0.59942821     0.36700
C517        C  0.00166100  0.69825322  0.86698037    -0.27600
C518        C  0.00992276  0.67294761  0.85225005     0.02000
C519        C  0.01752930  0.64810043  0.86836026     0.30100
C520        C  0.01670971  0.64877588  0.89876654    -0.19400
C521        C  0.00833802  0.67409255  0.91368488    -0.28800
C522        C  0.00075705  0.69899199  0.89736639     0.44100
C523        C  0.00970794  0.67244191  0.82006847     0.05300
O524        O  0.02539467  0.62291207  0.85456578    -0.57300
H525        H  0.02259621  0.62934245  0.91067154     0.18300
O526        O  0.99211980  0.72413156  0.91076970    -0.64000
H527        H  0.99573789  0.71752363  0.85481606     0.16700
C528        C  0.98383426  0.67732655  0.80460599     0.29000
C529        C  0.98376947  0.67605609  0.77424433    -0.24900
C530        C  0.00938176  0.67009392  0.75863518    -0.24200
C531        C  0.03549724  0.66595114  0.77425656     0.40400
C532        C  0.03539574  0.66681953  0.80468795    -0.26700
O533        O  0.95835946  0.68298418  0.81901317    -0.58500
H534        H  0.96347490  0.67963549  0.76292249     0.16000
O535        O  0.06113844  0.66029490  0.76016633    -0.60000
H536        H  0.05550468  0.66322546  0.81635029     0.14500
H537        H  0.97070175  0.72253766  0.91253524     0.46300
H538        H  0.95046608  0.66367760  0.82437638     0.41700
H539        H  0.07066987  0.67947168  0.75786550     0.45200
H540        H  0.00693246  0.61235066  0.85120452     0.36700
C541        C  0.86089842  0.01341850  0.36316186    -0.27600
C542        C  0.84595859  0.00923704  0.33705331     0.02000
C543        C  0.86162668  0.00469233  0.31126840     0.30100
C544        C  0.89197383  0.00372373  0.31192614    -0.19400
C545        C  0.90717790  0.00702636  0.33820526    -0.28800
C546        C  0.89125810  0.01239358  0.36393206     0.44100
C547        C  0.81395209  0.00877146  0.33709170     0.05300
O548        O  0.84741343  0.00187196  0.28525254    -0.57300
H549        H  0.90355569  0.00005179  0.29177023     0.18300
O550        O  0.90499342  0.01635765  0.39002550    -0.64000
H551        H  0.84892471  0.01704746  0.38310993     0.16700
C552        C  0.79888213  0.98295772  0.33105575     0.29000
C553        C  0.76855672  0.98280068  0.33092377    -0.24900
C554        C  0.75271968  0.00823437  0.33681232    -0.24200
C555        C  0.76798450  0.03404289  0.34335132     0.40400
C556        C  0.79839368  0.03406572  0.34364403    -0.26700
O557        O  0.81364409  0.95773000  0.32530685    -0.58500
H558        H  0.75744276  0.96269118  0.32593129     0.16000
O559        O  0.75350765  0.05915050  0.35022694    -0.60000
H560        H  0.80988878  0.05394998  0.34871841     0.14500
H561        H  0.90796294  0.03762883  0.39161508     0.46300
H562        H  0.81792497  0.94915830  0.34459370     0.41700
H563        H  0.75291798  0.07053746  0.33193784     0.45200
H564        H  0.84811469  0.98086761  0.28063870     0.36700
C565        C  0.66084804  0.02196822  0.19525935    -0.27600
C566        C  0.66552397  0.99476088  0.18243906     0.02000
C567        C  0.67038669  0.97044395  0.20022674     0.30100
C568        C  0.67068475  0.97355019  0.23042406    -0.19400
C569        C  0.66604869  0.00080586  0.24350915    -0.28800
C570        C  0.66101503  0.02514832  0.22550093     0.44100
C571        C  0.66588525  0.99218816  0.15044580     0.05300
O572        O  0.67472265  0.94351211  0.18829390    -0.57300
H573        H  0.67448275  0.95442104  0.24360479     0.18300
O574        O  0.65630159  0.05216041  0.23707744    -0.64000
H575        H  0.65724989  0.04088839  0.18171156     0.16700
C576        C  0.64106991  0.99874175  0.13397121     0.29000
C577        C  0.64232840  0.99775335  0.10362084    -0.24900
C578        C  0.66834558  0.99072402  0.08915250    -0.24200
C579        C  0.69301505  0.98343652  0.10585042     0.40400
C580        C  0.69156177  0.98404867  0.13623266    -0.26700
O581        O  0.61533316  0.00550527  0.14741265    -0.58500
H582        H  0.62294155  0.00304939  0.09140978     0.16000
O583        O  0.71847970  0.97511568  0.09280373    -0.60000
H584        H  0.71074519  0.97872113  0.14876353     0.14500
H585        H  0.63492122  0.05376078  0.23917815     0.46300
H586        H  0.61391630  0.02697587  0.14646806     0.41700
H587        H  0.73070771  0.99284052  0.09241210     0.45200
H588        H  0.65498980  0.93525367  0.18575010     0.36700
C589        C  0.52813783  0.97665137  0.33414011    -0.27600
C590        C  0.51258749  0.00278827  0.33218670     0.02000
C591        C  0.52796067  0.02906877  0.32926810     0.30100
C592        C  0.55831059  0.02894190  0.32866115    -0.19400
C593        C  0.57397395  0.00277600  0.33058002    -0.28800
C594        C  0.55847928  0.97641989  0.33312861     0.44100
C595        C  0.48038579  0.00235825  0.33287559     0.05300
O596        O  0.51354750  0.05502631  0.32676427    -0.57300
H597        H  0.56956562  0.04949942  0.32660179     0.18300
O598        O  0.57261991  0.95023245  0.33447750    -0.64000
H599        H  0.51672084  0.95624931  0.33674323     0.16700
C600        C  0.46459418  0.98379010  0.31443905     0.29000
C601        C  0.43424360  0.98386311  0.31523513    -0.24900
C602        C  0.41914778  0.00249462  0.33399734    -0.24200
C603        C  0.43483147  0.02106298  0.35246388     0.40400
C604        C  0.46524119  0.02065664  0.35204957    -0.26700
O605        O  0.47861797  0.96650914  0.29461595    -0.58500
H606        H  0.42243646  0.96966439  0.30068720     0.16000
O607        O  0.42068177  0.03867475  0.37187624    -0.60000
H608        H  0.47703391  0.03458048  0.36685966     0.14500
H609        H  0.57457655  0.94591523  0.35549545     0.46300
H610        H  0.47638069  0.94637281  0.30198354     0.41700
H611        H  0.42013223  0.05807109  0.36252558     0.45200
H612        H  0.50879713  0.05687372  0.30585578     0.36700
C613        C  0.19479779  0.96948803  0.33182653    -0.27600
C614        C  0.17912879  0.99553862  0.33171673     0.02000
C615        C  0.19407659  0.02210192  0.33076715     0.30100
C616        C  0.22442374  0.02245617  0.33056437    -0.19400
C617        C  0.24042716  0.99643582  0.33117897    -0.28800
C618        C  0.22520989  0.96971852  0.33153999     0.44100
C619        C  0.14714426  0.99501635  0.33328278     0.05300
O620        O  0.17914472  0.04787246  0.33020690    -0.57300
H621        H  0.23540398  0.04325042  0.33002749     0.18300
O622        O  0.23969156  0.94370186  0.33246129    -0.64000
H623        H  0.18339166  0.94891673  0.33259872     0.16700
C624        C  0.13046077  0.98524453  0.30973413     0.29000
C625        C  0.10012277  0.98627060  0.31124188    -0.24900
C626        C  0.08598338  0.99679698  0.33622048    -0.24200
C627        C  0.10290442  0.00607584  0.36001113     0.40400
C628        C  0.13322522  0.00534338  0.35827955    -0.26700
O629        O  0.14362290  0.97503933  0.28503156    -0.58500
H630        H  0.08764992  0.97883999  0.29276180     0.16000
O631        O  0.09014579  0.01704910  0.38458660    -0.60000
H632        H  0.14597607  0.01301086  0.37648125     0.14500
H633        H  0.24131007  0.93743195  0.31193452     0.46300
H634        H  0.14734065  0.99249446  0.27296116     0.41700
H635        H  0.08914489  0.00046895  0.39833169     0.45200
H636        H  0.17510410  0.05160337  0.30937770     0.36700
C637        C  0.32677524  0.03440279  0.19840326    -0.27600
C638        C  0.32562945  0.00872843  0.18223415     0.02000
C639        C  0.32677918  0.98182239  0.19653506     0.30100
C640        C  0.32874516  0.98075944  0.22680485    -0.19400
C641        C  0.32966393  0.00640637  0.24337476    -0.28800
C642        C  0.32884475  0.03346518  0.22874821     0.44100
C643        C  0.32526623  0.01002435  0.15028273     0.05300
O644        O  0.32639818  0.95642979  0.18100871    -0.57300
H645        H  0.32945721  0.95969506  0.23728016     0.18300
O646        O  0.33069302  0.05912662  0.24370137    -0.64000
H647        H  0.32646134  0.05522854  0.18741112     0.16700
C648        C  0.29949039  0.01530433  0.13484580     0.29000
C649        C  0.29975683  0.01497581  0.10439802    -0.24900
C650        C  0.32573689  0.00991879  0.08902470    -0.24200
C651        C  0.35164175  0.00531963  0.10486504     0.40400
C652        C  0.35112424  0.00512814  0.13516557    -0.26700
O653        O  0.27385762  0.01995238  0.14932183    -0.58500
H654        H  0.27962237  0.01875269  0.09285282     0.16000
O655        O  0.37755260  0.00016670  0.09107531    -0.60000
H656        H  0.37105691  0.00105801  0.14698364     0.14500
H657        H  0.31032137  0.06556458  0.24644842     0.46300
H658        H  0.27309885  0.04119952  0.15272460     0.41700
H659        H  0.38717112  0.01939456  0.08974627     0.45200
H660        H  0.30559202  0.95108624  0.17950429     0.36700
C661        C  0.31425723  0.96691314  0.53223665    -0.27600
C662        C  0.33109978  0.98686011  0.51625485     0.02000
C663        C  0.35033625  0.00528912  0.53141003     0.30100
C664        C  0.35167153  0.00433178  0.56170587    -0.19400
C665        C  0.33485741  0.98446257  0.57756279    -0.28800
C666        C  0.31645083  0.96525816  0.56258850     0.44100
C667        C  0.32844017  0.98873940  0.48399675     0.05300
O668        O  0.36801914  0.02438832  0.51686159    -0.57300
H669        H  0.36614322  0.01911094  0.57289344     0.18300
O670        O  0.29921244  0.94604598  0.57749248    -0.64000
H671        H  0.29886365  0.95296408  0.52128956     0.16700
C672        C  0.32900819  0.96374674  0.46633532     0.29000
C673        C  0.32876181  0.96647806  0.43599172    -0.24900
C674        C  0.32777869  0.99391451  0.42254843    -0.24200
C675        C  0.32614602  0.01885957  0.44031570     0.40400
C676        C  0.32626150  0.01608018  0.47057458    -0.26700
O677        O  0.33141241  0.93660808  0.47842669    -0.58500
H678        H  0.32982453  0.94692769  0.42298441     0.16000
O679        O  0.32521812  0.04620888  0.42850595    -0.60000
H680        H  0.32489538  0.03557367  0.48364278     0.14500
H681        H  0.31053740  0.92774471  0.57823188     0.46300
H682        H  0.31213473  0.92739360  0.47567053     0.41700
H683        H  0.30427901  0.05103647  0.42709539     0.45200
H684        H  0.38523393  0.01284148  0.51102400     0.36700
C685        C  0.32832848  0.02583020  0.79946212    -0.27600
C686        C  0.33602948  0.00226909  0.81704572     0.02000
C687        C  0.34447107  0.97592937  0.80410387     0.30100
C688        C  0.34481289  0.97335096  0.77379170    -0.19400
C689        C  0.33730407  0.99702538  0.75600461    -0.28800
C690        C  0.32916426  0.02352252  0.76921638     0.44100
C691        C  0.33442970  0.00525102  0.84891222     0.05300
O692        O  0.35119810  0.95227698  0.82096111    -0.57300
H693        H  0.35105041  0.95279026  0.76422937     0.18300
O694        O  0.32088110  0.04702418  0.75286698    -0.64000
H695        H  0.32166817  0.04615534  0.80926826     0.16700
C696        C  0.35951279  0.00304783  0.86608174     0.29000
C697        C  0.35733395  0.00476666  0.89629000    -0.24900
C698        C  0.33028210  0.00900373  0.90994356    -0.24200
C699        C  0.30530741  0.01249152  0.89248083     0.40400
C700        C  0.30754780  0.01050640  0.86222913    -0.26700
O701        O  0.38625956  0.99913937  0.85352772    -0.58500
H702        H  0.37695823  0.00246836  0.90903055     0.16000
O703        O  0.27855619  0.01748160  0.90462017    -0.60000
H704        H  0.28815368  0.01269203  0.84910040     0.14500
H705        H  0.33839113  0.05949525  0.75158447     0.46300
H706        H  0.39342265  0.01900150  0.84917753     0.41700
H707        H  0.27667251  0.03891890  0.90545397     0.45200
H708        H  0.37266978  0.95068011  0.82020573     0.36700
C709        C  0.20130256  0.01510141  0.65987129    -0.27600
C710        C  0.18625829  0.99047837  0.66942165     0.02000
C711        C  0.20175608  0.96606779  0.67911784     0.30100
C712        C  0.23213891  0.96630109  0.67860195    -0.19400
C713        C  0.24745053  0.99096005  0.66893886    -0.28800
C714        C  0.23165237  0.01564933  0.65984907     0.44100
C715        C  0.15431393  0.99047329  0.66858160     0.05300
O716        O  0.18737760  0.94158822  0.68818686    -0.57300
H717        H  0.24370255  0.94711975  0.68582708     0.18300
O718        O  0.24554194  0.04006421  0.64989459    -0.64000
H719        H  0.18941270  0.03398600  0.65236968     0.16700
C720        C  0.13797683  0.99398756  0.69407861     0.29000
C721        C  0.10765761  0.99499129  0.69262960    -0.24900
C722        C  0.09315958  0.99282422  0.66580372    -0.24200
C723        C  0.10983066  0.98929005  0.64023346     0.40400
C724        C  0.14014800  0.98811630  0.64183058    -0.26700
O725        O  0.15148780  0.99671604  0.72045912    -0.58500
H726        H  0.09552927  0.99779543  0.71260348     0.16000
O727        O  0.09684019  0.98647990  0.61361045    -0.60000
H728        H  0.15269933  0.98545541  0.62208163     0.14500
H729        H  0.24607986  0.05346705  0.66671919     0.46300
H730        H  0.15474058  0.01786266  0.72292939     0.41700
H731        H  0.09694701  0.00629225  0.60512603     0.45200
H732        H  0.18546303  0.94370069  0.70953279     0.36700
C733        C  0.65150659  0.98088304  0.46813851    -0.27600
C734        C  0.65926311  0.00573967  0.48377439     0.02000
C735        C  0.66548899  0.03162170  0.46864554     0.30100
C736        C  0.66498459  0.03196978  0.43818098    -0.19400
C737        C  0.65828901  0.00671980  0.42243453    -0.28800
C738        C  0.65093759  0.98116630  0.43782265     0.44100
C739        C  0.66207381  0.00368104  0.51574004     0.05300
O740        O  0.67389754  0.05609006  0.48337186    -0.57300
H741        H  0.67074038  0.05181877  0.42690059     0.18300
O742        O  0.64275018  0.95637501  0.42352124    -0.64000
H743        H  0.64616694  0.96097331  0.47954139     0.16700
C744        C  0.64606925  0.02188915  0.53434489     0.29000
C745        C  0.64919480  0.01928272  0.56444121    -0.24900
C746        C  0.66746696  0.99801259  0.57647022    -0.24200
C747        C  0.68316841  0.97951900  0.55789712     0.40400
C748        C  0.68044287  0.98247716  0.52777361    -0.26700
O749        O  0.62676811  0.04175517  0.52338639    -0.58500
H750        H  0.63663276  0.03340122  0.57846927     0.16000
O751        O  0.70148715  0.95877473  0.56892663    -0.60000
H752        H  0.69282894  0.96824408  0.51370650     0.14500
H753        H  0.66027175  0.94383110  0.42338159     0.46300
H754        H  0.60842127  0.03084527  0.52061649     0.41700
H755        H  0.72062342  0.96850630  0.57065534     0.45200
H756        H  0.65751583  0.06992907  0.48134836     0.36700
C757        C  0.53348468  0.01242120  0.67588194    -0.27600
C758        C  0.51902614  0.98794600  0.66515176     0.02000
C759        C  0.53516786  0.96445771  0.65426998     0.30100
C760        C  0.56553344  0.96560216  0.65432997    -0.19400
C761        C  0.58020144  0.99002255  0.66525333    -0.28800
C762        C  0.56382096  0.01354373  0.67619752     0.44100
C763        C  0.48702525  0.98739313  0.66504411     0.05300
O764        O  0.52138973  0.94085714  0.64246779    -0.57300
H765        H  0.57759770  0.94743389  0.64550702     0.18300
O766        O  0.57713609  0.03763242  0.68751712    -0.64000
H767        H  0.52115663  0.03059825  0.68434174     0.16700
C768        C  0.47155443  0.96745441  0.68232449     0.29000
C769        C  0.44117843  0.96736260  0.68182733    -0.24900
C770        C  0.42594970  0.98749024  0.66471746    -0.24200
C771        C  0.44151655  0.00739399  0.64740211     0.40400
C772        C  0.47185444  0.00731460  0.64775818    -0.26700
O773        O  0.48593373  0.94837627  0.70012901    -0.58500
H774        H  0.42950261  0.95207100  0.69542004     0.16000
O775        O  0.42729776  0.02676118  0.62977479    -0.60000
H776        H  0.48361932  0.02269014  0.63433580     0.14500
H777        H  0.58051981  0.03293509  0.70826588     0.46300
H778        H  0.48919418  0.95915048  0.71846069     0.41700
H779        H  0.42354029  0.01604015  0.61149779     0.45200
H780        H  0.52250259  0.92546823  0.65751773     0.36700
C781        C  0.80640990  0.97206530  0.65319374    -0.27600
C782        C  0.82050252  0.99621388  0.66511699     0.02000
C783        C  0.80397848  0.01870285  0.67740503     0.30100
C784        C  0.77362820  0.01707069  0.67731999    -0.19400
C785        C  0.75928536  0.99282892  0.66557532    -0.28800
C786        C  0.77603785  0.97006691  0.65361862     0.44100
C787        C  0.85252815  0.99752801  0.66500835     0.05300
O788        O  0.81732790  0.04267914  0.68890918    -0.57300
H789        H  0.76129451  0.03476645  0.68671310     0.18300
O790        O  0.76300300  0.94631501  0.64130721    -0.64000
H791        H  0.81903996  0.95463170  0.64368511     0.16700
C792        C  0.86834492  0.99143583  0.69034297     0.29000
C793        C  0.89871859  0.99210557  0.68977794    -0.24900
C794        C  0.91386564  0.99866522  0.66400410    -0.24200
C795        C  0.89778631  0.00521343  0.63869257     0.40400
C796        C  0.86735783  0.00453349  0.63936513    -0.26700
O797        O  0.85427110  0.98468115  0.71574490    -0.58500
H798        H  0.91041476  0.98703190  0.70953816     0.16000
O799        O  0.91147167  0.01306150  0.61339479    -0.60000
H800        H  0.85526976  0.00954360  0.61981590     0.14500
H801        H  0.76342282  0.93107956  0.65654547     0.46300
H802        H  0.85045524  0.96351475  0.71466260     0.41700
H803        H  0.91214370  0.99512164  0.60153887     0.45200
H804        H  0.81917707  0.03850616  0.70996329     0.36700
C805        C  0.69338844  0.98290170  0.86301521    -0.27600
C806        C  0.66733587  0.98907563  0.84852171     0.02000
C807        C  0.64247805  0.99621775  0.86478418     0.30100
C808        C  0.64390492  0.99708174  0.89512691    -0.19400
C809        C  0.67002863  0.99119112  0.90981666    -0.28800
C810        C  0.69491799  0.98392602  0.89337877     0.44100
C811        C  0.66649858  0.98834794  0.81639534     0.05300
O812        O  0.61643362  0.00124159  0.85120845    -0.57300
H813        H  0.62439339  0.00244958  0.90715285     0.18300
O814        O  0.72080228  0.97757122  0.90664368    -0.64000
H815        H  0.71268670  0.97741899  0.85068560     0.16700
C816        C  0.65985157  0.01349558  0.80039355     0.29000
C817        C  0.66013782  0.01273385  0.77008046    -0.24900
C818        C  0.66722430  0.98711857  0.75500608    -0.24200
C819        C  0.67332416  0.96172364  0.77111958     0.40400
C820        C  0.67323237  0.96259568  0.80157389    -0.26700
O821        O  0.65366236  0.03914922  0.81418340    -0.58500
H822        H  0.65506139  0.03250767  0.75836178     0.16000
O823        O  0.68036057  0.93622734  0.75746888    -0.60000
H824        H  0.67843370  0.94309114  0.81369454     0.14500
H825        H  0.72028802  0.95632386  0.91016902     0.46300
H826        H  0.67269404  0.04883446  0.81685196     0.41700
H827        H  0.66197823  0.92503685  0.75666102     0.45200
H828        H  0.61263208  0.02229793  0.85358820     0.36700
C829        C  0.32318468  0.81041847  0.98005442    -0.27600
C830        C  0.33470545  0.82624876  0.00330020     0.02000
C831        C  0.34744410  0.81129357  0.02673297     0.30100
C832        C  0.34845548  0.78086602  0.02665885    -0.19400
C833        C  0.33724969  0.76493802  0.00320841    -0.28800
C834        C  0.32450130  0.78007078  0.97975533     0.44100
C835        C  0.33284776  0.85834681  0.00289917     0.05300
O836        O  0.35765266  0.82621542  0.05038477    -0.57300
H837        H  0.35807422  0.76973472  0.04502378     0.18300
O838        O  0.31200278  0.76543427  0.95706288    -0.64000
H839        H  0.31312633  0.82168103  0.96199628     0.16700
C840        C  0.35803166  0.87554296  0.00403957     0.29000
C841        C  0.35579156  0.90578158  0.00317164    -0.24900
C842        C  0.32859083  0.91959112  0.00086493    -0.24200
C843        C  0.30333936  0.90223829  0.99951893     0.40400
C844        C  0.30565062  0.87190145  0.00049417    -0.26700
O845        O  0.38501315  0.86300995  0.00561747    -0.58500
H846        H  0.37560573  0.91841370  0.00418090     0.16000
O847        O  0.27628623  0.91455607  0.99764998    -0.60000
H848        H  0.28608633  0.85886561  0.99951819     0.14500
H849        H  0.32672758  0.76574449  0.94132666     0.46300
H850        H  0.39099788  0.85984721  0.98518079     0.41700
H851        H  0.27152901  0.91454398  0.97666072     0.45200
H852        H  0.37907207  0.82390185  0.04983686     0.36700
C853        C  0.13888572  0.70303117  0.01647872    -0.27600
C854        C  0.15465636  0.67717244  0.01385708     0.02000
C855        C  0.13980848  0.65076720  0.01046101     0.30100
C856        C  0.10947378  0.65053741  0.00884831    -0.19400
C857        C  0.09343983  0.67652603  0.01055364    -0.28800
C858        C  0.10851555  0.70287585  0.01517151     0.44100
C859        C  0.18665866  0.67807657  0.01297396     0.05300
O860        O  0.15482152  0.62514138  0.00809309    -0.57300
H861        H  0.09856527  0.62994450  0.00570992     0.18300
O862        O  0.09394711  0.72869005  0.01804984    -0.64000
H863        H  0.15022065  0.72345021  0.01931411     0.16700
C864        C  0.20110347  0.68867464  0.98823632     0.29000
C865        C  0.23145214  0.68807173  0.98690575    -0.24900
C866        C  0.24785464  0.67758896  0.01040075    -0.24200
C867        C  0.23321918  0.66744046  0.03544696     0.40400
C868        C  0.20282272  0.66759186  0.03648864    -0.26700
O869        O  0.18564566  0.69880592  0.96488402    -0.58500
H870        H  0.24216959  0.69603611  0.96750469     0.16000
O871        O  0.24832096  0.65690514  0.05885690    -0.60000
H872        H  0.19181151  0.65939288  0.05563248     0.14500
H873        H  0.09023016  0.73071539  0.03916988     0.46300
H874        H  0.18363635  0.71997993  0.96818097     0.41700
H875        H  0.25078681  0.63586382  0.05502238     0.45200
H876        H  0.15909754  0.62303486  0.98710481     0.36700
C877        C  0.47354573  0.65905997  0.02171623    -0.27600
C878        C  0.48804385  0.66775670  0.99631869     0.02000
C879        C  0.47157653  0.67752879  0.97245543     0.30100
C880        C  0.44122495  0.67878046  0.97435716    -0.19400
C881        C  0.42671355  0.67073329  0.00002567    -0.28800
C882        C  0.44325565  0.66050223  0.02374621     0.44100
C883        C  0.52029317  0.66664380  0.99515024     0.05300
O884        O  0.48493772  0.68638712  0.94732030    -0.57300
H885        H  0.42905892  0.68661750  0.95581474     0.18300
O886        O  0.43012799  0.65161229  0.04899933    -0.64000
H887        H  0.48577523  0.65086691  0.04006414     0.16700
C888        C  0.53717607  0.67979359  0.01697727     0.29000
C889        C  0.56749331  0.67762808  0.01618303    -0.24900
C890        C  0.58157065  0.66277907  0.99360081    -0.24200
C891        C  0.56473838  0.65014159  0.97139043     0.40400
C892        C  0.53436813  0.65197123  0.97239412    -0.26700
O893        O  0.52424941  0.69589945  0.03846313    -0.58500
H894        H  0.58006687  0.68804940  0.03308880     0.16000
O895        O  0.57765880  0.63559625  0.94883190    -0.60000
H896        H  0.52174693  0.64154086  0.95553788     0.14500
H897        H  0.42630315  0.63059467  0.04630427     0.46300
H898        H  0.52623455  0.68416820  0.05643264     0.41700
H899        H  0.58105497  0.61563000  0.95619550     0.45200
H900        H  0.48993918  0.70707177  0.95054467     0.36700
C901        C  0.69704353  0.85740404  0.98844825    -0.27600
C902        C  0.67270980  0.84160156  0.99753223     0.02000
C903        C  0.64773028  0.85640818  0.00703121     0.30100
C904        C  0.64729885  0.88677216  0.00726134    -0.19400
C905        C  0.67170801  0.90275800  0.99825861    -0.28800
C906        C  0.69671060  0.88772504  0.98867694     0.44100
C907        C  0.67353917  0.80962535  0.99691169     0.05300
O908        O  0.62363818  0.84136430  0.01607347    -0.57300
H909        H  0.62790049  0.89780422  0.01473829     0.18300
O910        O  0.72091733  0.90236003  0.97928420    -0.64000
H911        H  0.71641459  0.84615234  0.98120948     0.16700
C912        C  0.67686348  0.79461630  0.97057180     0.29000
C913        C  0.67654899  0.76425795  0.97033654    -0.24900
C914        C  0.67343728  0.74841924  0.99628528    -0.24200
C915        C  0.67087657  0.76370879  0.02280440     0.40400
C916        C  0.67084959  0.79404196  0.02287920    -0.26700
O917        O  0.67928148  0.80948258  0.94484378    -0.58500
H918        H  0.67867271  0.75315159  0.94972392     0.16000
O919        O  0.66847658  0.74937453  0.04883429    -0.60000
H920        H  0.66870326  0.80548848  0.04331795     0.14500
H921        H  0.71775056  0.90566240  0.95823375     0.46300
H922        H  0.70035813  0.80974634  0.94038860     0.41700
H923        H  0.64731016  0.74781306  0.05253156     0.45200
H924        H  0.61231351  0.83762203  0.99816673     0.36700
C925        C  0.80689006  0.67089799  0.97176314    -0.27600
C926        C  0.82161860  0.66269908  0.99703856     0.02000
C927        C  0.80589479  0.65214306  0.02097028     0.30100
C928        C  0.77557802  0.65058312  0.01971035    -0.19400
C929        C  0.76055541  0.65892045  0.99445754    -0.28800
C930        C  0.77661039  0.66879300  0.97017986     0.44100
C931        C  0.85349850  0.66503431  0.99812872     0.05300
O932        O  0.81996156  0.64406690  0.04594111    -0.57300
H933        H  0.76382231  0.64280417  0.03857711     0.18300
O934        O  0.76295195  0.67754202  0.94520304    -0.64000
H935        H  0.81895133  0.67893713  0.95318981     0.16700
C936        C  0.87095114  0.64037217  0.99423587     0.29000
C937        C  0.90118069  0.64289066  0.99515838    -0.24900
C938        C  0.91456496  0.66996750  0.99982949    -0.24200
C939        C  0.89681707  0.69472275  0.00386086     0.40400
C940        C  0.86651632  0.69207730  0.00291843    -0.26700
O941        O  0.85860914  0.61367158  0.98964028    -0.58500
H942        H  0.91414629  0.62350844  0.99205869     0.16000
O943        O  0.90870048  0.72140555  0.00961450    -0.60000
H944        H  0.85310831  0.71115456  0.00612811     0.14500
H945        H  0.76350577  0.66043569  0.93222725     0.46300
H946        H  0.85579468  0.61240436  0.96832773     0.41700
H947        H  0.90907688  0.73168054  0.99066686     0.45200
H948        H  0.82295812  0.62281626  0.04413820     0.36700
C949        C  0.33938520  0.47715958  0.03169823    -0.27600
C950        C  0.32857511  0.49246611  0.00761793     0.02000
C951        C  0.31730199  0.47671652  0.98393260     0.30100
C952        C  0.31737942  0.44635180  0.98443781    -0.19400
C953        C  0.32796367  0.43106823  0.00863576    -0.28800
C954        C  0.33893212  0.44680038  0.03246186     0.44100
C955        C  0.32988613  0.52472461  0.00714543     0.05300
O956        O  0.30595772  0.49075757  0.96022964    -0.57300
H957        H  0.30870910  0.43473786  0.96593425     0.18300
O958        O  0.34977938  0.43280629  0.05642074    -0.64000
H959        H  0.34877809  0.48875052  0.04983762     0.16700
C960        C  0.32031577  0.54135275  0.03100868     0.29000
C961        C  0.32238655  0.57168870  0.03020791    -0.24900
C962        C  0.33370739  0.58600689  0.00574703    -0.24200
C963        C  0.34319669  0.56937086  0.98185139     0.40400
C964        C  0.34140977  0.53906815  0.98277638    -0.26700
O965        O  0.30769821  0.52822211  0.05464540    -0.58500
H966        H  0.31459473  0.58406212  0.04863781     0.16000
O967        O  0.35458756  0.58240950  0.95757355    -0.60000
H968        H  0.34946400  0.52670629  0.96445896     0.14500
H969        H  0.37057549  0.42932731  0.05197610     0.46300
H970        H  0.32179461  0.53057245  0.07074222     0.41700
H971        H  0.37557481  0.58479758  0.96174216     0.45200
H972        H  0.28520767  0.49398885  0.96500753     0.36700
C973        C  0.19232454  0.34604202  0.98146072    -0.27600
C974        C  0.17697162  0.34284682  0.00755866     0.02000
C975        C  0.19246095  0.33910162  0.03362582     0.30100
C976        C  0.22287997  0.33863507  0.03328228    -0.19400
C977        C  0.23839133  0.34195611  0.00711765    -0.28800
C978        C  0.22266566  0.34583297  0.98104757     0.44100
C979        C  0.14481036  0.34298996  0.00700944     0.05300
O980        O  0.17809003  0.33600719  0.05955968    -0.57300
H981        H  0.23431157  0.33566845  0.05361317     0.18300
O982        O  0.23658870  0.34925730  0.95491426    -0.64000
H983        H  0.18069248  0.34852242  0.96117214     0.16700
C984        C  0.12947017  0.36637095  0.99463305     0.29000
C985        C  0.09915478  0.36536507  0.99273913    -0.24900
C986        C  0.08365955  0.34099032  0.00260789    -0.24200
C987        C  0.09905384  0.31779006  0.01548419     0.40400
C988        C  0.12935963  0.31900258  0.01771106    -0.26700
O989        O  0.14392921  0.39062082  0.98503702    -0.58500
H990        H  0.08780202  0.38356973  0.98306131     0.16000
O991        O  0.08468309  0.29423499  0.02676813    -0.60000
H992        H  0.14088900  0.30087140  0.02732547     0.14500
H993        H  0.23814309  0.37055631  0.95206335     0.46300
H994        H  0.14364617  0.38937107  0.96354009     0.41700
H995        H  0.08607754  0.27900488  0.01163868     0.45200
H996        H  0.17427324  0.35608968  0.06630641     0.36700
C997        C  0.33540408  0.20681843  0.97934636    -0.27600
C998        C  0.33089803  0.19126412  0.00504229     0.02000
C999        C  0.32704349  0.20611416  0.03133697     0.30100
C1000       C  0.32685071  0.23646417  0.03158117    -0.19400
C1001       C  0.33048656  0.25235802  0.00569206    -0.28800
C1002       C  0.33531594  0.23714912  0.97946305     0.44100
C1003       C  0.32978577  0.15944453  0.00403186     0.05300
O1004       O  0.32333418  0.19111074  0.05683181    -0.57300
H1005       H  0.32347082  0.24751490  0.05205739     0.18300
O1006       O  0.34056044  0.25158629  0.95391026    -0.64000
H1007       H  0.33886537  0.19535656  0.95909433     0.16700
C1008       C  0.30463163  0.14514200  0.99447398     0.29000
C1009       C  0.30396307  0.11480117  0.99345597    -0.24900
C1010       C  0.32847674  0.09845116  0.00142493    -0.24200
C1011       C  0.35373534  0.11309095  0.01095060     0.40400
C1012       C  0.35411977  0.14337247  0.01234874    -0.26700
O1013       O  0.28044242  0.16067674  0.98667097    -0.58500
H1014       H  0.28434790  0.10409878  0.98614688     0.16000
O1015       O  0.37785848  0.09806394  0.01989056    -0.60000
H1016       H  0.37351905  0.15437564  0.01982109     0.14500
H1017       H  0.32165056  0.25197896  0.94366503     0.46300
H1018       H  0.28304801  0.16501812  0.96571818     0.41700
H1019       H  0.39116823  0.09811435  0.00293865     0.45200
H1020       H  0.30204468  0.18860825  0.05889153     0.36700
C1021       C  0.65551718  0.46282109  0.02075687    -0.27600
C1022       C  0.66603088  0.47662565  0.99562164     0.02000
C1023       C  0.67566319  0.45962661  0.97214516     0.30100
C1024       C  0.67402313  0.42935937  0.97376632    -0.19400
C1025       C  0.66315376  0.41548212  0.99870256    -0.28800
C1026       C  0.65403735  0.43250397  0.02244676     0.44100
C1027       C  0.66738159  0.50873879  0.99447865     0.05300
O1028       O  0.68818578  0.47237941  0.94823579    -0.57300
H1029       H  0.68181221  0.41669130  0.95553640     0.18300
O1030       O  0.64344635  0.41984726  0.04727749    -0.64000
H1031       H  0.64815016  0.47563938  0.03905806     0.16700
C1032       C  0.65465029  0.52447671  0.97148396     0.29000
C1033       C  0.65633526  0.55479417  0.97098877    -0.24900
C1034       C  0.66978907  0.56991477  0.99370511    -0.24200
C1035       C  0.68237185  0.55416887  0.01678809     0.40400
C1036       C  0.68111174  0.52386489  0.01701330    -0.26700
O1037       O  0.63982547  0.51052412  0.94979489    -0.58500
H1038       H  0.64627987  0.56654579  0.95324836     0.16000
O1039       O  0.69615598  0.56813198  0.03916645    -0.60000
H1040       H  0.69105220  0.51209240  0.03480764     0.14500
H1041       H  0.62220634  0.41811697  0.04414113     0.46300
H1042       H  0.62002441  0.50734167  0.95763192     0.41700
H1043       H  0.71629850  0.57123026  0.03231918     0.45200
H1044       H  0.67512381  0.46791144  0.93173038     0.36700
C1045       C  0.46347600  0.35380878  0.98487247    -0.27600
C1046       C  0.47847730  0.33712334  0.00554832     0.02000
C1047       C  0.46247607  0.32271679  0.02745187     0.30100
C1048       C  0.43220148  0.32512723  0.02832475    -0.19400
C1049       C  0.41727858  0.34103193  0.00705630    -0.28800
C1050       C  0.43317626  0.35548013  0.98524259     0.44100
C1051       C  0.51067731  0.33486824  0.00408498     0.05300
O1052       O  0.47610523  0.30571679  0.04777798    -0.57300
H1053       H  0.42029310  0.31370987  0.04514492     0.18300
O1054       O  0.41935121  0.37147085  0.96424588    -0.64000
H1055       H  0.47526414  0.36576992  0.96838423     0.16700
C1056       C  0.52513012  0.32888221  0.97772331     0.29000
C1057       C  0.55543596  0.32631467  0.97714209    -0.24900
C1058       C  0.57194331  0.32952093  0.00257346    -0.24200
C1059       C  0.55741799  0.33570026  0.02890183     0.40400
C1060       C  0.52720446  0.33866933  0.02937035    -0.26700
O1061       O  0.50976047  0.32423219  0.95264571    -0.58500
H1062       H  0.56597578  0.32152928  0.95665122     0.16000
O1063       O  0.57248536  0.33971431  0.05424698    -0.60000
H1064       H  0.51666337  0.34412929  0.04968887     0.14500
H1065       H  0.41683677  0.39106920  0.97277908     0.46300
H1066       H  0.51375386  0.34136715  0.94016527     0.41700
H1067       H  0.57196730  0.32061888  0.06422712     0.45200
H1068       H  0.47799907  0.28634542  0.03862184     0.36700
C1069       C  0.85829026  0.35701780  0.00680089    -0.27600
C1070       C  0.84409451  0.33335085  0.99402484     0.02000
C1071       C  0.86055955  0.31164412  0.98019713     0.30100
C1072       C  0.89085705  0.31358969  0.97962191    -0.19400
C1073       C  0.90517587  0.33725500  0.99241331    -0.28800
C1074       C  0.88858916  0.35923226  0.00586206     0.44100
C1075       C  0.81207636  0.33157680  0.99494106     0.05300
O1076       O  0.84722528  0.28832126  0.96738901    -0.57300
H1077       H  0.90319304  0.29654157  0.96909391     0.18300
O1078       O  0.90179295  0.38226274  0.01931107    -0.64000
H1079       H  0.84581039  0.37391850  0.01739920     0.16700
C1080       C  0.79707367  0.33023477  0.02151990     0.29000
C1081       C  0.76674546  0.32827621  0.02176380    -0.24900
C1082       C  0.75085652  0.32795327  0.99567082    -0.24200
C1083       C  0.76611914  0.32936646  0.96904532     0.40400
C1084       C  0.79642209  0.33117350  0.96890015    -0.26700
O1085       O  0.81195473  0.32979854  0.04730899    -0.58500
H1086       H  0.75570094  0.32709050  0.04252008     0.16000
O1087       O  0.75175505  0.32953869  0.94298295    -0.60000
H1088       H  0.80778977  0.33245730  0.94831299     0.14500
H1089       H  0.90086824  0.39842406  0.00508843     0.46300
H1090       H  0.81031242  0.34977874  0.05511793     0.41700
H1091       H  0.75086076  0.30889928  0.93694434     0.45200
H1092       H  0.84415805  0.27410626  0.98328254     0.36700
C1093       C  0.69452746  0.12842201  0.99259556    -0.27600
C1094       C  0.66833372  0.14318991  0.99719276     0.02000
C1095       C  0.64273437  0.12726587  0.00191772     0.30100
C1096       C  0.64354446  0.09688893  0.00229813    -0.19400
C1097       C  0.66982311  0.08183149  0.99827915    -0.28800
C1098       C  0.69547679  0.09800650  0.99313408     0.44100
C1099       C  0.66780777  0.17527079  0.99743267     0.05300
O1100       O  0.61666926  0.14128232  0.00539804    -0.57300
H1101       H  0.62348836  0.08514119  0.00595643     0.18300
O1102       O  0.72163621  0.08445154  0.98870038    -0.64000
H1103       H  0.71435585  0.14054815  0.98885385     0.16700
C1104       C  0.66229600  0.19045748  0.02330487     0.29000
C1105       C  0.66041389  0.22077333  0.02303244    -0.24900
C1106       C  0.66414046  0.23653393  0.99710960    -0.24200
C1107       C  0.67029597  0.22115186  0.97122359     0.40400
C1108       C  0.67224313  0.19077718  0.97162205    -0.26700
O1109       O  0.65869840  0.17579517  0.04900587    -0.58500
H1110       H  0.65593631  0.23193541  0.04323726     0.16000
O1111       O  0.67519328  0.23551081  0.94555714    -0.60000
H1112       H  0.67682674  0.17924887  0.95163398     0.14500
H1113       H  0.72308247  0.08178770  0.96738064     0.46300
H1114       H  0.67854440  0.17352156  0.05699194     0.41700
H1115       H  0.65636900  0.23500486  0.93513700     0.45200
H1116       H  0.61309221  0.14146081  0.02662325     0.36700
loop_ 
_geom_bond_atom_site_label_1 
_geom_bond_atom_site_label_2 
_geom_bond_distance 
_geom_bond_site_symmetry_2 
_ccdc_geom_bond_type 
O1           Cu9   2.016       .  S
O1           C11   1.280   1_554  A
O2           Cu9   2.012       .  S
O2           C12   1.278   1_554  A
O3           Cu9   2.000       .  S
O3           C13   1.277       .  A
O4           Cu9   2.002       .  S
O4           C14   1.278   1_554  A
O5          Cu10   2.003       .  S
O5           C14   1.278       .  A
O6          Cu10   2.011       .  S
O6           C13   1.279   1_556  A
O7          Cu10   1.994       .  S
O7           C12   1.277       .  A
O8          Cu10   2.001       .  S
O8           C11   1.276       .  A
Cu9         Cu10   2.368   1_554  S
C11        C1106   1.486       .  S
C12        C1025   1.478       .  S
C13        C1058   1.485       .  S
C14        C1082   1.484       .  S
O15         Cu23   1.998       .  S
O15          C25   1.277   1_556  A
O16         Cu23   1.998       .  S
O16          C26   1.277   1_556  A
O17         Cu23   1.999       .  S
O17          C27   1.277   1_556  A
O18         Cu23   1.998       .  S
O18          C28   1.277   1_556  A
O19         Cu24   2.008       .  S
O19          C28   1.278       .  A
O20         Cu24   2.014       .  S
O20          C27   1.279       .  A
O21         Cu24   2.003       .  S
O21          C26   1.278       .  A
O22         Cu24   2.009       .  S
O22          C25   1.278       .  A
Cu23        Cu24   2.370   1_556  S
C25         C953   1.479       .  S
C26        C1001   1.481       .  S
C27         C977   1.486       .  S
C28        C1049   1.474       .  S
O29         Cu37   2.006       .  S
O29          C39   1.278   1_554  A
O30         Cu37   2.011       .  S
O30          C40   1.279   1_554  A
O31         Cu37   1.991       .  S
O31          C41   1.276   1_554  A
O32         Cu37   1.987       .  S
O32          C42   1.275   1_554  A
O33         Cu38   2.012       .  S
O33          C42   1.280       .  A
O34         Cu38   2.012       .  S
O34          C41   1.279       .  A
O35         Cu38   2.007       .  S
O35          C40   1.277       .  A
O36         Cu38   2.006       .  S
O36          C39   1.277       .  A
Cu37        Cu38   2.371   1_554  S
C39         C929   1.482       .  S
C40         C890   1.479       .  S
C41        C1034   1.475       .  S
C42         C914   1.481       .  S
O43         Cu51   2.016       .  S
O43          C53   1.279       .  A
O44         Cu51   2.010       .  S
O44          C54   1.279       .  A
O45         Cu51   2.006       .  S
O45          C55   1.277       .  A
O46         Cu51   2.001       .  S
O46          C56   1.277       .  A
O47         Cu52   2.014       .  S
O47          C56   1.279   1_556  A
O48         Cu52   2.016       .  S
O48          C55   1.279   1_556  A
O49         Cu52   2.003       .  S
O49          C54   1.277   1_556  A
O50         Cu52   2.000       .  S
O50          C53   1.277   1_556  A
Cu51        Cu52   2.370   1_554  S
C53         C833   1.482       .  S
C54         C962   1.480       .  S
C55         C881   1.485       .  S
C56         C866   1.481       .  S
O57         Cu65   2.009       .  S
O57          C67   1.278       .  A
O58         Cu65   2.009       .  S
O58          C68   1.278       .  A
O59         Cu65   2.017       .  S
O59          C69   1.279       .  A
O60         Cu65   2.025       .  S
O60          C70   1.280       .  A
O61         Cu66   1.992       .  S
O61          C70   1.276   1_545  A
O62         Cu66   1.996       .  S
O62          C69   1.276   1_545  A
O63         Cu66   2.000       .  S
O63          C68   1.277   1_545  A
O64         Cu66   2.010       .  S
O64          C67   1.279   1_545  A
Cu65        Cu66   2.371   1_565  S
C67         C785   1.483       .  S
C68         C761   1.480       .  S
C69         C746   1.474       .  S
C70         C818   1.486       .  S
O71         Cu79   2.003       .  S
O71          C81   1.278   1_545  A
O72         Cu79   1.998       .  S
O72          C82   1.277   1_545  A
O73         Cu79   1.990       .  S
O73          C83   1.275   1_545  A
O74         Cu79   1.993       .  S
O74          C84   1.276   1_545  A
O75         Cu80   2.019       .  S
O75          C84   1.280       .  A
O76         Cu80   2.028       .  S
O76          C83   1.280       .  A
O77         Cu80   2.006       .  S
O77          C82   1.277       .  A
O78         Cu80   2.002       .  S
O78          C81   1.277       .  A
Cu79        Cu80   2.372   1_545  S
C81         C713   1.481       .  S
C82         C770   1.472       .  S
C83         C665   1.476       .  S
C84         C689   1.483       .  S
O85         Cu93   2.009       .  S
O85          C95   1.278       .  A
O86         Cu93   2.004       .  S
O86          C96   1.277   1_545  A
O87         Cu93   2.013       .  S
O87          C97   1.278       .  A
O88         Cu93   2.011       .  S
O88          C98   1.279   1_545  A
O89         Cu94   1.999       .  S
O89          C98   1.276       .  A
O90         Cu94   1.998       .  S
O90          C97   1.276   1_565  A
O91         Cu94   2.016       .  S
O91          C96   1.280       .  A
O92         Cu94   2.009       .  S
O92          C95   1.279   1_565  A
Cu93        Cu94   2.368   1_545  S
C95         C641   1.487       .  S
C96         C674   1.489       .  S
C97         C602   1.473       .  S
C98         C617   1.485       .  S
O99        Cu107   2.000       .  S
O99         C109   1.277       .  A
O100       Cu107   2.003       .  S
O100        C110   1.277       .  A
O101       Cu107   2.023       .  S
O101        C111   1.280       .  A
O102       Cu107   2.022       .  S
O102        C112   1.280       .  A
O103       Cu108   1.989       .  S
O103        C112   1.275   1_565  A
O104       Cu108   1.991       .  S
O104        C111   1.276   1_565  A
O105       Cu108   2.004       .  S
O105        C110   1.278   1_565  A
O106       Cu108   2.002       .  S
O106        C109   1.277   1_565  A
Cu107      Cu108   2.368   1_545  S
C109        C593   1.483       .  S
C110        C554   1.482       .  S
C111        C569   1.486       .  S
C112        C737   1.483       .  S
O113       Cu121   2.006       .  S
O113        C123   1.278       .  A
O114       Cu121   2.008       .  S
O114        C124   1.278       .  A
O115       Cu121   2.010       .  S
O115        C125   1.278       .  A
O116       Cu121   2.003       .  S
O116        C126   1.277       .  A
O117       Cu122   2.004       .  S
O117        C126   1.277   1_655  A
O118       Cu122   2.013       .  S
O118        C125   1.279   1_655  A
O119       Cu122   1.998       .  S
O119        C124   1.277   1_655  A
O120       Cu122   2.010       .  S
O120        C123   1.278   1_655  A
Cu121      Cu122   2.370   1_455  S
C123        C482   1.487       .  S
C124        C506   1.478       .  S
C125        C530   1.489       .  S
C126        C449   1.472       .  S
O127       Cu135   2.006       .  S
O127        C137   1.277       .  A
O128       Cu135   2.003       .  S
O128        C138   1.277       .  A
O129       Cu135   2.002       .  S
O129        C139   1.277       .  A
O130       Cu135   2.004       .  S
O130        C140   1.277       .  A
O131       Cu136   2.010       .  S
O131        C140   1.278   1_655  A
O132       Cu136   2.017       .  S
O132        C139   1.279   1_655  A
O133       Cu136   2.013       .  S
O133        C138   1.279   1_655  A
O134       Cu136   2.008       .  S
O134        C137   1.279   1_655  A
Cu135      Cu136   2.370   1_455  S
C137        C386   1.485       .  S
C138        C401   1.482       .  S
C139        C425   1.483       .  S
C140        C473   1.475       .  S
O141       Cu149   1.997       .  S
O141        C151   1.277   1_455  A
O142       Cu149   2.001       .  S
O142        C152   1.277   1_455  A
O143       Cu149   2.015       .  S
O143        C153   1.279   1_455  A
O144       Cu149   2.012       .  S
O144        C154   1.279   1_455  A
O145       Cu150   1.996       .  S
O145        C154   1.276       .  A
O146       Cu150   1.995       .  S
O146        C153   1.276       .  A
O147       Cu150   2.003       .  S
O147        C152   1.277       .  A
O148       Cu150   2.005       .  S
O148        C151   1.278       .  A
Cu149      Cu150   2.370   1_455  S
C151        C458   1.482       .  S
C152        C353   1.474       .  S
C153        C338   1.479       .  S
C154        C305   1.485       .  S
O155       Cu163   1.999       .  S
O155        C165   1.276       .  A
O156       Cu163   1.991       .  S
O156        C166   1.276   1_655  A
O157       Cu163   2.009       .  S
O157        C167   1.278       .  A
O158       Cu163   2.004       .  S
O158        C168   1.279   1_655  A
O159       Cu164   2.002       .  S
O159        C168   1.277       .  A
O160       Cu164   1.994       .  S
O160        C167   1.276   1_455  A
O161       Cu164   2.018       .  S
O161        C166   1.279       .  A
O162       Cu164   2.010       .  S
O162        C165   1.279   1_455  A
Cu163      Cu164   2.372   1_655  S
C165        C290   1.483       .  S
C166        C377   1.474       .  S
C167        C314   1.470       .  S
C168        C257   1.482       .  S
O169       Cu177   2.009       .  S
O169        C179   1.279       .  A
O170       Cu177   2.003   1_554  S
O170        C180   1.278       .  A
O171       Cu177   2.004       .  S
O171        C181   1.278       .  A
O172       Cu177   2.006   1_455  S
O172        C182   1.277       .  A
O173       Cu178   2.008   1_455  S
O173        C182   1.278       .  A
O174       Cu178   2.006       .  S
O174        C181   1.277       .  A
O175       Cu178   2.001   1_554  S
O175        C180   1.277       .  A
O176       Cu178   2.006       .  S
O176        C179   1.278       .  A
Cu177      Cu178   2.369       .  S
C179        C410   1.487       .  S
C180        C281   1.482       .  S
C181       C1073   1.477       .  S
C182        C986   1.481   1_556  S
O183       Cu191   2.003       .  S
O183        C193   1.278       .  A
O184       Cu191   2.011   1_556  S
O184        C194   1.279       .  A
O185       Cu191   2.004       .  S
O185        C195   1.278       .  A
O186       Cu191   2.004   1_655  S
O186        C196   1.278       .  A
O187       Cu192   2.010   1_655  S
O187        C196   1.278       .  A
O188       Cu192   2.010       .  S
O188        C195   1.278       .  A
O189       Cu192   2.011   1_556  S
O189        C194   1.278       .  A
O190       Cu192   2.002       .  S
O190        C193   1.277       .  A
Cu191      Cu192   2.367       .  S
C193        C362   1.483   1_455  S
C194        C521   1.487       .  S
C195        C857   1.486       .  S
C196        C938   1.485   1_554  S
O197       Cu205   2.003       .  S
O197        C207   1.278       .  A
O198       Cu205   2.002   1_465  S
O198        C208   1.277       .  A
O199       Cu205   2.010   1_565  S
O199        C209   1.279       .  A
O200       Cu205   2.011       .  S
O200        C210   1.279       .  A
O201       Cu206   1.996       .  S
O201        C210   1.276       .  A
O202       Cu206   2.001   1_565  S
O202        C209   1.277       .  A
O203       Cu206   2.008   1_455  S
O203        C208   1.278   1_545  A
O204       Cu206   2.007       .  S
O204        C207   1.278       .  A
Cu205      Cu206   2.368       .  S
C207        C545   1.484       .  S
C208        C626   1.482       .  S
C209        C329   1.486       .  S
C210        C266   1.482   1_655  S
O211       Cu219   2.012   1_655  S
O211        C221   1.279       .  A
O212       Cu219   2.010       .  S
O212        C222   1.278       .  A
O213       Cu219   1.994       .  S
O213        C223   1.276       .  A
O214       Cu219   1.994   1_545  S
O214        C224   1.277       .  A
O215       Cu220   2.012   1_545  S
O215        C224   1.279       .  A
O216       Cu220   2.010       .  S
O216        C223   1.279       .  A
O217       Cu220   2.003       .  S
O217        C222   1.277       .  A
O218       Cu220   2.005   1_655  S
O218        C221   1.278       .  A
Cu219      Cu220   2.367       .  S
C221        C794   1.486       .  S
C222        C722   1.485       .  S
C223        C497   1.483       .  S
C224        C434   1.484       .  S
O225       Cu233   2.015       .  S
O225        C235   1.279       .  A
O226       Cu233   2.018   1_554  S
O226        C236   1.279       .  A
O227       Cu233   1.992       .  S
O227        C237   1.276       .  A
O228       Cu233   2.003   1_545  S
O228        C238   1.277       .  A
O229       Cu234   2.015   1_545  S
O229        C238   1.280       .  A
O230       Cu234   2.013       .  S
O230        C237   1.279       .  A
O231       Cu234   2.001   1_554  S
O231        C236   1.277       .  A
O232       Cu234   2.000       .  S
O232        C235   1.277       .  A
Cu233      Cu234   2.368       .  S
C235        C809   1.485       .  S
C236        C578   1.485       .  S
C237        C905   1.479       .  S
C238       C1097   1.487       .  S
O239       Cu247   1.991       .  S
O239        C249   1.276       .  A
O240       Cu247   1.995   1_556  S
O240        C250   1.277       .  A
O241       Cu247   1.983       .  S
O241        C251   1.274   1_554  A
O242       Cu247   1.989   1_565  S
O242        C252   1.276   1_554  A
O243       Cu248   2.023   1_565  S
O243        C252   1.280       .  A
O244       Cu248   2.016       .  S
O244        C251   1.279       .  A
O245       Cu248   2.015       .  S
O245        C250   1.279       .  A
O246       Cu248   2.017   1_554  S
O246        C249   1.279       .  A
Cu247      Cu248   2.368   1_554  S
C249        C650   1.484       .  S
C250        C698   1.484       .  S
C251       C1010   1.478   1_556  S
C252        C842   1.486   1_556  S
C253        C254   1.402       .  A
C253        C258   1.400       .  A
C253        H263   1.083       .  S
C254        C259   1.479       .  S
C254        C255   1.407   1_455  A
C255        C256   1.396       .  A
C255        O260   1.372       .  S
C256        C257   1.405   1_655  A
C256        H261   1.083       .  S
C257        C258   1.414       .  A
C258        O262   1.372       .  S
C259        C264   1.407       .  A
C259        C268   1.401   1_455  A
O260        H276   0.991       .  S
O262        H273   0.992       .  S
C264        C265   1.400       .  A
C264        O269   1.372       .  S
C265        C266   1.406       .  A
C265        H270   1.083       .  S
C266        C267   1.413   1_455  A
C267        C268   1.397       .  A
C267        O271   1.372       .  S
C268        H272   1.084       .  S
O269        H274   0.992       .  S
O271        H275   0.992       .  S
C277        C278   1.399       .  A
C277        C282   1.400       .  A
C277        H287   1.084       .  S
C278        C283   1.469       .  S
C278        C279   1.402       .  A
C279        C280   1.396       .  A
C279        O284   1.372       .  S
C280        C281   1.407       .  A
C280        H285   1.083       .  S
C281        C282   1.415       .  A
C282        O286   1.372       .  S
C283        C288   1.403   1_655  A
C283        C292   1.398       .  A
O284        H300   0.992   1_655  S
O286        H297   0.992       .  S
C288        C289   1.397       .  A
C288        O293   1.372       .  S
C289        C290   1.407   1_455  A
C289        H294   1.083       .  S
C290        C291   1.416       .  A
C291        C292   1.399       .  A
C291        O295   1.372       .  S
C292        H296   1.084       .  S
O293        H298   0.992       .  S
O295        H299   0.992       .  S
C301        C302   1.402       .  A
C301        C306   1.397       .  A
C301        H311   1.083       .  S
C302        C307   1.485       .  S
C302        C303   1.410   1_655  A
C303        C304   1.399       .  A
C303        O308   1.372       .  S
C304        C305   1.406   1_455  A
C304        H309   1.083       .  S
C305        C306   1.414       .  A
C306        O310   1.372       .  S
C307        C312   1.412       .  A
C307        C316   1.404   1_655  A
O308        H324   0.991       .  S
O310        H321   0.991       .  S
C312        C313   1.400       .  A
C312        O317   1.373       .  S
C313        C314   1.401       .  A
C313        H318   1.084       .  S
C314        C315   1.407   1_655  A
C315        C316   1.398       .  A
C315        O319   1.372       .  S
C316        H320   1.083       .  S
O317        H322   0.992       .  S
O319        H323   0.992       .  S
C325        C326   1.400       .  A
C325        C330   1.400       .  A
C325        H335   1.084       .  S
C326        C331   1.477       .  S
C326        C327   1.405       .  A
C327        C328   1.398       .  A
C327        O332   1.372       .  S
C328        C329   1.407       .  A
C328        H333   1.083       .  S
C329        C330   1.416       .  A
C330        O334   1.372       .  S
C331        C336   1.407   1_655  A
C331        C340   1.401       .  A
O332        H348   0.992   1_655  S
O334        H345   0.992   1_655  S
C336        C337   1.401       .  A
C336        O341   1.372       .  S
C337        C338   1.405   1_455  A
C337        H342   1.084       .  S
C338        C339   1.411       .  A
C339        C340   1.398       .  A
C339        O343   1.372       .  S
C340        H344   1.084       .  S
O341        H346   0.992       .  S
O343        H347   0.992       .  S
C349        C350   1.402       .  A
C349        C354   1.398       .  A
C349        H359   1.084       .  S
C350        C355   1.474       .  S
C350        C351   1.406   1_655  A
C351        C352   1.398       .  A
C351        O356   1.372       .  S
C352        C353   1.404   1_455  A
C352        H357   1.084       .  S
C353        C354   1.410       .  A
C354        O358   1.372       .  S
C355        C360   1.405       .  A
C355        C364   1.400       .  A
O356        H372   0.991       .  S
O358        H369   0.992       .  S
C360        C361   1.397       .  A
C360        O365   1.372       .  S
C361        C362   1.407       .  A
C361        H366   1.083       .  S
C362        C363   1.414   1_655  A
C363        C364   1.398   1_455  A
C363        O367   1.372       .  S
C364        H368   1.084   1_655  S
O365        H370   0.991       .  S
O367        H371   0.992       .  S
C373        C374   1.403   1_655  A
C373        C378   1.396       .  A
C373        H383   1.083       .  S
C374        C379   1.484       .  S
C374        C375   1.411       .  A
C375        C376   1.401       .  A
C375        O380   1.372       .  S
C376        C377   1.403       .  A
C376        H381   1.084       .  S
C377        C378   1.409   1_455  A
C378        O382   1.372       .  S
C379        C384   1.408   1_455  A
C379        C388   1.403       .  A
O380        H396   0.991       .  S
O382        H393   0.992       .  S
C384        C385   1.400       .  A
C384        O389   1.373       .  S
C385        C386   1.406   1_655  A
C385        H390   1.083       .  S
C386        C387   1.413       .  A
C387        C388   1.400       .  A
C387        O391   1.371       .  S
C388        H392   1.084       .  S
O389        H394   0.992       .  S
O391        H395   0.992       .  S
C397        C398   1.401       .  A
C397        C402   1.399       .  A
C397        H407   1.084       .  S
C398        C403   1.478   1_455  S
C398        C399   1.406   1_455  A
C399        C400   1.401       .  A
C399        O404   1.372       .  S
C400        C401   1.407   1_655  A
C400        H405   1.083       .  S
C401        C402   1.412       .  A
C402        O406   1.372       .  S
C403        C408   1.405       .  A
C403        C412   1.401       .  A
O404        H420   0.991       .  S
O406        H417   0.992       .  S
C408        C409   1.399       .  A
C408        O413   1.372       .  S
C409        C410   1.407       .  A
C409        H414   1.083       .  S
C410        C411   1.415       .  A
C411        C412   1.401       .  A
C411        O415   1.371       .  S
C412        H416   1.084   1_655  S
O413        H418   0.991   1_655  S
O415        H419   0.992       .  S
C421        C422   1.401       .  A
C421        C426   1.399       .  A
C421        H431   1.084       .  S
C422        C427   1.478       .  S
C422        C423   1.407   1_455  A
C423        C424   1.400       .  A
C423        O428   1.372       .  S
C424        C425   1.406   1_655  A
C424        H429   1.083       .  S
C425        C426   1.413       .  A
C426        O430   1.372       .  S
C427        C432   1.405       .  A
C427        C436   1.402       .  A
O428        H444   0.991       .  S
O430        H441   0.991       .  S
C432        C433   1.398       .  A
C432        O437   1.372       .  S
C433        C434   1.408       .  A
C433        H438   1.083       .  S
C434        C435   1.413       .  A
C435        C436   1.400       .  A
C435        O439   1.371   1_455  S
C436        H440   1.084   1_455  S
O437        H442   0.992       .  S
O439        H443   0.992       .  S
C445        C446   1.404       .  A
C445        C450   1.398       .  A
C445        H455   1.083       .  S
C446        C451   1.481   1_455  S
C446        C447   1.410   1_455  A
C447        C448   1.398       .  A
C447        O452   1.372       .  S
C448        C449   1.403   1_655  A
C448        H453   1.084       .  S
C449        C450   1.408       .  A
C450        O454   1.372       .  S
C451        C456   1.408   1_655  A
C451        C460   1.403       .  A
O452        H468   0.992       .  S
O454        H465   0.992       .  S
C456        C457   1.399       .  A
C456        O461   1.372       .  S
C457        C458   1.406   1_455  A
C457        H462   1.083       .  S
C458        C459   1.412       .  A
C459        C460   1.398       .  A
C459        O463   1.371       .  S
C460        H464   1.084       .  S
O461        H466   0.992       .  S
O463        H467   0.992       .  S
C469        C470   1.405   1_655  A
C469        C474   1.400       .  A
C469        H479   1.084       .  S
C470        C475   1.485       .  S
C470        C471   1.409       .  A
C471        C472   1.401       .  A
C471        O476   1.373       .  S
C472        C473   1.403       .  A
C472        H477   1.084       .  S
C473        C474   1.408   1_455  A
C474        O478   1.372       .  S
C475        C480   1.409       .  A
C475        C484   1.403   1_455  A
O476        H492   0.993       .  S
O478        H489   0.992       .  S
C480        C481   1.399       .  A
C480        O485   1.371       .  S
C481        C482   1.407       .  A
C481        H486   1.083       .  S
C482        C483   1.414   1_455  A
C483        C484   1.400       .  A
C483        O487   1.371       .  S
C484        H488   1.084       .  S
O485        H490   0.992       .  S
O487        H491   0.992       .  S
C493        C494   1.401       .  A
C493        C498   1.397       .  A
C493        H503   1.084       .  S
C494        C499   1.475       .  S
C494        C495   1.404       .  A
C495        C496   1.398   1_455  A
C495        O500   1.372   1_455  S
C496        C497   1.409   1_655  A
C496        H501   1.083       .  S
C497        C498   1.412       .  A
C498        O502   1.371       .  S
C499        C504   1.406       .  A
C499        C508   1.401   1_455  A
O500        H516   0.992   1_655  S
O502        H513   0.992       .  S
C504        C505   1.398       .  A
C504        O509   1.372       .  S
C505        C506   1.404       .  A
C505        H510   1.083       .  S
C506        C507   1.413   1_455  A
C507        C508   1.399       .  A
C507        O511   1.372       .  S
C508        H512   1.084       .  S
O509        H514   0.992       .  S
O511        H515   0.991       .  S
C517        C518   1.402       .  A
C517        C522   1.400       .  A
C517        H527   1.084   1_455  S
C518        C523   1.482       .  S
C518        C519   1.407       .  A
C519        C520   1.401       .  A
C519        O524   1.372       .  S
C520        C521   1.408       .  A
C520        H525   1.083       .  S
C521        C522   1.414       .  A
C522        O526   1.371   1_455  S
C523        C528   1.407   1_455  A
C523        C532   1.402       .  A
O524        H540   0.992       .  S
O526        H537   0.992       .  S
C528        C529   1.399       .  A
C528        O533   1.372       .  S
C529        C530   1.407   1_655  A
C529        H534   1.083       .  S
C530        C531   1.415       .  A
C531        C532   1.402       .  A
C531        O535   1.371       .  S
C532        H536   1.084       .  S
O533        H538   0.991       .  S
O535        H539   0.992       .  S
C541        C542   1.400       .  A
C541        C546   1.399       .  A
C541        H551   1.084       .  S
C542        C547   1.474       .  S
C542        C543   1.404       .  A
C543        C544   1.398       .  A
C543        O548   1.372       .  S
C544        C545   1.407       .  A
C544        H549   1.083       .  S
C545        C546   1.414       .  A
C546        O550   1.371       .  S
C547        C552   1.405   1_545  A
C547        C556   1.400       .  A
O548        H564   0.991   1_545  S
O550        H561   0.992       .  S
C552        C553   1.396       .  A
C552        O557   1.372       .  S
C553        C554   1.406   1_565  A
C553        H558   1.083       .  S
C554        C555   1.414       .  A
C555        C556   1.400       .  A
C555        O559   1.372       .  S
C556        H560   1.084       .  S
O557        H562   0.991       .  S
O559        H563   0.992       .  S
C565        C566   1.402   1_545  A
C565        C570   1.401       .  A
C565        H575   1.084       .  S
C566        C571   1.478       .  S
C566        C567   1.404       .  A
C567        C568   1.398       .  A
C567        O572   1.372       .  S
C568        C569   1.409   1_565  A
C568        H573   1.083       .  S
C569        C570   1.413       .  A
C570        O574   1.371       .  S
C571        C576   1.405       .  A
C571        C580   1.402       .  A
O572        H588   0.992       .  S
O574        H585   0.992       .  S
C576        C577   1.400       .  A
C576        O581   1.372   1_565  S
C577        C578   1.408       .  A
C577        H582   1.083   1_565  S
C578        C579   1.413       .  A
C579        C580   1.401       .  A
C579        O583   1.371       .  S
C580        H584   1.084       .  S
O581        H586   0.992       .  S
O583        H587   0.992       .  S
C589        C590   1.403   1_565  A
C589        C594   1.398       .  A
C589        H599   1.083       .  S
C590        C595   1.483       .  S
C590        C591   1.408       .  A
C591        C592   1.398       .  A
C591        O596   1.372       .  S
C592        C593   1.407       .  A
C592        H597   1.083       .  S
C593        C594   1.413   1_545  A
C594        O598   1.372       .  S
C595        C600   1.409   1_545  A
C595        C604   1.406       .  A
O596        H612   0.991       .  S
O598        H609   0.992       .  S
C600        C601   1.398       .  A
C600        O605   1.372       .  S
C601        C602   1.402   1_565  A
C601        H606   1.084       .  S
C602        C603   1.407       .  A
C603        C604   1.400       .  A
C603        O607   1.372       .  S
C604        H608   1.083       .  S
O605        H610   0.992       .  S
O607        H611   0.991       .  S
C613        C614   1.400       .  A
C613        C618   1.400       .  A
C613        H623   1.084       .  S
C614        C619   1.475       .  S
C614        C615   1.404   1_565  A
C615        C616   1.397       .  A
C615        O620   1.372       .  S
C616        C617   1.407   1_545  A
C616        H621   1.083       .  S
C617        C618   1.416       .  A
C618        O622   1.372       .  S
C619        C624   1.405       .  A
C619        C628   1.400   1_565  A
O620        H636   0.992       .  S
O622        H633   0.992       .  S
C624        C625   1.399       .  A
C624        O629   1.372       .  S
C625        C626   1.408       .  A
C625        H630   1.083       .  S
C626        C627   1.412   1_565  A
C627        C628   1.399       .  A
C627        O631   1.371       .  S
C628        H632   1.084       .  S
O629        H634   0.991       .  S
O631        H635   0.992       .  S
C637        C638   1.399       .  A
C637        C642   1.401       .  A
C637        H647   1.084       .  S
C638        C643   1.473       .  S
C638        C639   1.403   1_545  A
C639        C640   1.398       .  A
C639        O644   1.372       .  S
C640        C641   1.408   1_565  A
C640        H645   1.083       .  S
C641        C642   1.416       .  A
C642        O646   1.371       .  S
C643        C648   1.405       .  A
C643        C652   1.397       .  A
O644        H660   0.992       .  S
O646        H657   0.992       .  S
C648        C649   1.402       .  A
C648        O653   1.371       .  S
C649        C650   1.409       .  A
C649        H654   1.083       .  S
C650        C651   1.415       .  A
C651        C652   1.396       .  A
C651        O655   1.371       .  S
C652        H656   1.084       .  S
O653        H658   0.992       .  S
O655        H659   0.992       .  S
C661        C662   1.408       .  A
C661        C666   1.403       .  A
C661        H671   1.082       .  S
C662        C667   1.493       .  S
C662        C663   1.413   1_565  A
C663        C664   1.397       .  A
C663        O668   1.372       .  S
C664        C665   1.402   1_545  A
C664        H669   1.084       .  S
C665        C666   1.407       .  A
C666        O670   1.371       .  S
C667        C672   1.411       .  A
C667        C676   1.405   1_565  A
O668        H684   0.991       .  S
O670        H681   0.991       .  S
C672        C673   1.403       .  A
C672        O677   1.372       .  S
C673        C674   1.407       .  A
C673        H678   1.083       .  S
C674        C675   1.413   1_565  A
C675        C676   1.399       .  A
C675        O679   1.372       .  S
C676        H680   1.083       .  S
O677        H682   0.992       .  S
O679        H683   0.992       .  S
C685        C686   1.399       .  A
C685        C690   1.398       .  A
C685        H695   1.084       .  S
C686        C691   1.476       .  S
C686        C687   1.407   1_545  A
C687        C688   1.401       .  A
C687        O692   1.372       .  S
C688        C689   1.406       .  A
C688        H693   1.083       .  S
C689        C690   1.415   1_565  A
C690        O694   1.372       .  S
C691        C696   1.404       .  A
C691        C700   1.402       .  A
O692        H708   0.992       .  S
O694        H705   0.992       .  S
C696        C697   1.397       .  A
C696        O701   1.372   1_545  S
C697        C698   1.408       .  A
C697        H702   1.083       .  S
C698        C699   1.413       .  A
C699        C700   1.400       .  A
C699        O703   1.371       .  S
C700        H704   1.084       .  S
O701        H706   0.992   1_565  S
O703        H707   0.992       .  S
C709        C710   1.399   1_545  A
C709        C714   1.398       .  A
C709        H719   1.084       .  S
C710        C715   1.471       .  S
C710        C711   1.404       .  A
C711        C712   1.399       .  A
C711        O716   1.372       .  S
C712        C713   1.408       .  A
C712        H717   1.083       .  S
C713        C714   1.413   1_565  A
C714        O718   1.371       .  S
C715        C720   1.403       .  A
C715        C724   1.399       .  A
O716        H732   0.992       .  S
O718        H729   0.992       .  S
C720        C721   1.398       .  A
C720        O725   1.372       .  S
C721        C722   1.409       .  A
C721        H726   1.083       .  S
C722        C723   1.414       .  A
C723        C724   1.399       .  A
C723        O727   1.371       .  S
C724        H728   1.084       .  S
O725        H730   0.992   1_565  S
O727        H731   0.992   1_565  S
C733        C734   1.400   1_565  A
C733        C738   1.396       .  A
C733        H743   1.084       .  S
C734        C739   1.481       .  S
C734        C735   1.409       .  A
C735        C736   1.403       .  A
C735        O740   1.372       .  S
C736        C737   1.406       .  A
C736        H741   1.083       .  S
C737        C738   1.414   1_545  A
C738        O742   1.372       .  S
C739        C744   1.407       .  A
C739        C748   1.405   1_545  A
O740        H756   0.992       .  S
O742        H753   0.992       .  S
C744        C745   1.399       .  A
C744        O749   1.371       .  S
C745        C746   1.405   1_545  A
C745        H750   1.084       .  S
C746        C747   1.407       .  A
C747        C748   1.399       .  A
C747        O751   1.372       .  S
C748        H752   1.084       .  S
O749        H754   0.991       .  S
O751        H755   0.992       .  S
C757        C758   1.400   1_545  A
C757        C762   1.398       .  A
C757        H767   1.084       .  S
C758        C763   1.474       .  S
C758        C759   1.405       .  A
C759        C760   1.399       .  A
C759        O764   1.372       .  S
C760        C761   1.406       .  A
C760        H765   1.083       .  S
C761        C762   1.413   1_565  A
C762        O766   1.372       .  S
C763        C768   1.407       .  A
C763        C772   1.401   1_565  A
O764        H780   0.992       .  S
O766        H777   0.992       .  S
C768        C769   1.399       .  A
C768        O773   1.372       .  S
C769        C770   1.404       .  A
C769        H774   1.084       .  S
C770        C771   1.409   1_565  A
C771        C772   1.397       .  A
C771        O775   1.372       .  S
C772        H776   1.084       .  S
O773        H778   0.992       .  S
O775        H779   0.992       .  S
C781        C782   1.401       .  A
C781        C786   1.402       .  A
C781        H791   1.084       .  S
C782        C787   1.476       .  S
C782        C783   1.404   1_565  A
C783        C784   1.399       .  A
C783        O788   1.371       .  S
C784        C785   1.407   1_545  A
C784        H789   1.083       .  S
C785        C786   1.413       .  A
C786        O790   1.372       .  S
C787        C792   1.404       .  A
C787        C796   1.400   1_565  A
O788        H804   0.992       .  S
O790        H801   0.992       .  S
C792        C793   1.399       .  A
C792        O797   1.372       .  S
C793        C794   1.408       .  A
C793        H798   1.083       .  S
C794        C795   1.414   1_565  A
C795        C796   1.402       .  A
C795        O799   1.372       .  S
C796        H800   1.084       .  S
O797        H802   0.992       .  S
O799        H803   0.991   1_545  S
C805        C806   1.402       .  A
C805        C810   1.401       .  A
C805        H815   1.084       .  S
C806        C811   1.480       .  S
C806        C807   1.406       .  A
C807        C808   1.400       .  A
C807        O812   1.373   1_565  S
C808        C809   1.407       .  A
C808        H813   1.083   1_565  S
C809        C810   1.413       .  A
C810        O814   1.371       .  S
C811        C816   1.405   1_565  A
C811        C820   1.404       .  A
O812        H828   0.991       .  S
O814        H825   0.992       .  S
C816        C817   1.396       .  A
C816        O821   1.372       .  S
C817        C818   1.408   1_545  A
C817        H822   1.083       .  S
C818        C819   1.412       .  A
C819        C820   1.403       .  A
C819        O823   1.371       .  S
C820        H824   1.084       .  S
O821        H826   0.991       .  S
O823        H827   0.992       .  S
C829        C830   1.401   1_556  A
C829        C834   1.399       .  A
C829        H839   1.084       .  S
C830        C835   1.481       .  S
C830        C831   1.408       .  A
C831        C832   1.402       .  A
C831        O836   1.372       .  S
C832        C833   1.405       .  A
C832        H837   1.083       .  S
C833        C834   1.413   1_554  A
C834        O838   1.372       .  S
C835        C840   1.405       .  A
C835        C844   1.403       .  A
O836        H852   0.992       .  S
O838        H849   0.992       .  S
C840        C841   1.397       .  A
C840        O845   1.372       .  S
C841        C842   1.409       .  A
C841        H846   1.083       .  S
C842        C843   1.412   1_554  A
C843        C844   1.402   1_556  A
C843        O847   1.371       .  S
C844        H848   1.084   1_554  S
O845        H850   0.991   1_554  S
O847        H851   0.991       .  S
C853        C854   1.400       .  A
C853        C858   1.400       .  A
C853        H863   1.084       .  S
C854        C859   1.475       .  S
C854        C855   1.404       .  A
C855        C856   1.399       .  A
C855        O860   1.372       .  S
C856        C857   1.408       .  A
C856        H861   1.083       .  S
C857        C858   1.415       .  A
C858        O862   1.371       .  S
C859        C864   1.405   1_554  A
C859        C868   1.400       .  A
O860        H876   0.991   1_554  S
O862        H873   0.992       .  S
C864        C865   1.399       .  A
C864        O869   1.372       .  S
C865        C866   1.405   1_556  A
C865        H870   1.083       .  S
C866        C867   1.414       .  A
C867        C868   1.400       .  A
C867        O871   1.372       .  S
C868        H872   1.084       .  S
O869        H874   0.991       .  S
O871        H875   0.992       .  S
C877        C878   1.404   1_554  A
C877        C882   1.399       .  A
C877        H887   1.083       .  S
C878        C883   1.487       .  S
C878        C879   1.409       .  A
C879        C880   1.401       .  A
C879        O884   1.371       .  S
C880        C881   1.406   1_556  A
C880        H885   1.083       .  S
C881        C882   1.413       .  A
C882        O886   1.372       .  S
C883        C888   1.409   1_556  A
C883        C892   1.405       .  A
O884        H900   0.991       .  S
O886        H897   0.992       .  S
C888        C889   1.400       .  A
C888        O893   1.372       .  S
C889        C890   1.403   1_554  A
C889        H894   1.084       .  S
C890        C891   1.411       .  A
C891        C892   1.402       .  A
C891        O895   1.372       .  S
C892        H896   1.083       .  S
O893        H898   0.992       .  S
O895        H899   0.992       .  S
C901        C902   1.399       .  A
C901        C906   1.396       .  A
C901        H911   1.084       .  S
C902        C907   1.473       .  S
C902        C903   1.406   1_556  A
C903        C904   1.398       .  A
C903        O908   1.372       .  S
C904        C905   1.405   1_554  A
C904        H909   1.083       .  S
C905        C906   1.414       .  A
C906        O910   1.372       .  S
C907        C912   1.405       .  A
C907        C916   1.399   1_556  A
O908        H924   0.992   1_554  S
O910        H921   0.992       .  S
C912        C913   1.398       .  A
C912        O917   1.372       .  S
C913        C914   1.406       .  A
C913        H918   1.083       .  S
C914        C915   1.415   1_556  A
C915        C916   1.397       .  A
C915        O919   1.372       .  S
C916        H920   1.084       .  S
O917        H922   0.992       .  S
O919        H923   0.992       .  S
C925        C926   1.399       .  A
C925        C930   1.400       .  A
C925        H935   1.084       .  S
C926        C931   1.473       .  S
C926        C927   1.404   1_556  A
C927        C928   1.399       .  A
C927        O932   1.371       .  S
C928        C929   1.407   1_554  A
C928        H933   1.083       .  S
C929        C930   1.414       .  A
C930        O934   1.372       .  S
C931        C936   1.403       .  A
C931        C940   1.400   1_556  A
O932        H948   0.992       .  S
O934        H945   0.990       .  S
C936        C937   1.397       .  A
C936        O941   1.372       .  S
C937        C938   1.408       .  A
C937        H942   1.083       .  S
C938        C939   1.415   1_556  A
C939        C940   1.401       .  A
C939        O943   1.372       .  S
C940        H944   1.084       .  S
O941        H946   0.992       .  S
O943        H947   0.992   1_554  S
C949        C950   1.405       .  A
C949        C954   1.399       .  A
C949        H959   1.083       .  S
C950        C955   1.487       .  S
C950        C951   1.411   1_554  A
C951        C952   1.398       .  A
C951        O956   1.372       .  S
C952        C953   1.405   1_556  A
C952        H957   1.084       .  S
C953        C954   1.410       .  A
C954        O958   1.372       .  S
C955        C960   1.410       .  A
C955        C964   1.405   1_554  A
O956        H972   0.991       .  S
O958        H969   0.992       .  S
C960        C961   1.401       .  A
C960        O965   1.373       .  S
C961        C962   1.404       .  A
C961        H966   1.084       .  S
C962        C963   1.411   1_554  A
C963        C964   1.398       .  A
C963        O967   1.372       .  S
C964        H968   1.083       .  S
O965        H970   0.992       .  S
O967        H971   0.992       .  S
C973        C974   1.401   1_556  A
C973        C978   1.397       .  A
C973        H983   1.084       .  S
C974        C979   1.481       .  S
C974        C975   1.408       .  A
C975        C976   1.401       .  A
C975        O980   1.372       .  S
C976        C977   1.408       .  A
C976        H981   1.083       .  S
C977        C978   1.414   1_554  A
C978        O982   1.372       .  S
C979        C984   1.408   1_554  A
C979        C988   1.402       .  A
O980        H996   0.992       .  S
O982        H993   0.992       .  S
C984        C985   1.399       .  A
C984        O989   1.372       .  S
C985        C986   1.405   1_556  A
C985        H990   1.083       .  S
C986        C987   1.412       .  A
C987        C988   1.400       .  A
C987        O991   1.372       .  S
C988        H992   1.084       .  S
O989        H994   0.992       .  S
O991        H995   0.991       .  S
C997        C998   1.397   1_556  A
C997       C1002   1.397       .  A
C997       H1007   1.084       .  S
C998       C1003   1.467       .  S
C998        C999   1.403       .  A
C999       C1000   1.398       .  A
C999       O1004   1.372       .  S
C1000      C1001   1.408       .  A
C1000      H1005   1.083       .  S
C1001      C1002   1.414   1_554  A
C1002      O1006   1.372       .  S
C1003      C1008   1.404   1_554  A
C1003      C1012   1.396       .  A
O1004      H1020   0.991       .  S
O1006      H1017   0.991       .  S
C1008      C1009   1.398       .  A
C1008      O1013   1.372       .  S
C1009      C1010   1.406   1_556  A
C1009      H1014   1.083       .  S
C1010      C1011   1.415       .  A
C1011      C1012   1.396       .  A
C1011      O1015   1.372       .  S
C1012      H1016   1.084       .  S
O1013      H1018   0.992       .  S
O1015      H1019   0.992       .  S
C1021      C1022   1.405   1_554  A
C1021      C1026   1.400       .  A
C1021      H1031   1.084       .  S
C1022      C1027   1.481       .  S
C1022      C1023   1.407       .  A
C1023      C1024   1.398       .  A
C1023      O1028   1.373       .  S
C1024      C1025   1.405       .  A
C1024      H1029   1.084       .  S
C1025      C1026   1.410   1_556  A
C1026      O1030   1.372       .  S
C1027      C1032   1.410       .  A
C1027      C1036   1.402   1_556  A
O1028      H1044   0.992       .  S
O1030      H1041   0.992       .  S
C1032      C1033   1.398       .  A
C1032      O1037   1.371       .  S
C1033      C1034   1.403       .  A
C1033      H1038   1.084       .  S
C1034      C1035   1.411   1_556  A
C1035      C1036   1.397       .  A
C1035      O1039   1.372       .  S
C1036      H1040   1.084       .  S
O1037      H1042   0.991       .  S
O1039      H1043   0.989       .  S
C1045      C1046   1.405   1_556  A
C1045      C1050   1.397       .  A
C1045      H1055   1.083       .  S
C1046      C1051   1.488       .  S
C1046      C1047   1.413       .  A
C1047      C1048   1.399       .  A
C1047      O1052   1.372       .  S
C1048      C1049   1.403       .  A
C1048      H1053   1.084       .  S
C1049      C1050   1.408   1_554  A
C1050      O1054   1.372       .  S
C1051      C1056   1.411   1_554  A
C1051      C1060   1.403       .  A
O1052      H1068   0.991       .  S
O1054      H1065   0.992       .  S
C1056      C1057   1.401       .  A
C1056      O1061   1.373       .  S
C1057      C1058   1.405   1_556  A
C1057      H1062   1.083       .  S
C1058      C1059   1.413       .  A
C1059      C1060   1.398       .  A
C1059      O1063   1.372       .  S
C1060      H1064   1.083       .  S
O1061      H1066   0.992       .  S
O1063      H1067   0.992       .  S
C1069      C1070   1.402   1_554  A
C1069      C1074   1.399       .  A
C1069      H1079   1.084       .  S
C1070      C1075   1.477       .  S
C1070      C1071   1.407       .  A
C1071      C1072   1.398       .  A
C1071      O1076   1.372       .  S
C1072      C1073   1.405       .  A
C1072      H1077   1.084       .  S
C1073      C1074   1.411   1_556  A
C1074      O1078   1.372       .  S
C1075      C1080   1.406   1_556  A
C1075      C1084   1.400       .  A
O1076      H1092   0.991       .  S
O1078      H1089   0.992       .  S
C1080      C1081   1.399       .  A
C1080      O1085   1.372       .  S
C1081      C1082   1.408   1_554  A
C1081      H1086   1.083       .  S
C1082      C1083   1.414       .  A
C1083      C1084   1.398       .  A
C1083      O1087   1.371       .  S
C1084      H1088   1.084       .  S
O1085      H1090   0.991       .  S
O1087      H1091   0.992       .  S
C1093      C1094   1.400       .  A
C1093      C1098   1.401       .  A
C1093      H1103   1.084       .  S
C1094      C1099   1.478       .  S
C1094      C1095   1.405   1_556  A
C1095      C1096   1.399       .  A
C1095      O1100   1.372       .  S
C1096      C1097   1.407   1_554  A
C1096      H1101   1.083       .  S
C1097      C1098   1.416       .  A
C1098      O1102   1.372       .  S
C1099      C1104   1.405   1_556  A
C1099      C1108   1.400       .  A
O1100      H1116   0.991       .  S
O1102      H1113   0.992       .  S
C1104      C1105   1.399       .  A
C1104      O1109   1.371       .  S
C1105      C1106   1.406   1_554  A
C1105      H1110   1.083       .  S
C1106      C1107   1.416       .  A
C1107      C1108   1.402       .  A
C1107      O1111   1.372       .  S
C1108      H1112   1.084       .  S
O1109      H1114   0.991       .  S
O1111      H1115   0.992       .  S
