geometry optimzed in LAMMPS
_audit_creation_date              2020-12-01 
_audit_creation_method            'lammps2cif' 
_symmetry_space_group_name_H-M    'P1' 
_symmetry_Int_Tables_number       1 
_symmetry_cell_setting            triclinic 
loop_ 
_symmetry_equiv_pos_as_xyz 
  x,y,z 
_cell_length_a                    46.54894249 
_cell_length_b                    46.65548336168081 
_cell_length_c                    46.777539006767064 
_cell_angle_alpha                 89.93205234490732 
_cell_angle_beta                  89.77155615872735 
_cell_angle_gamma                 89.84731923208659 
loop_ 
_atom_site_label 
_atom_site_type_symbol 
_atom_site_fract_x 
_atom_site_fract_y 
_atom_site_fract_z 
_atom_site_charge 
O1          O  0.24531128  0.03017587  0.23815325    -0.82300
C2          C  0.27262926  0.96344371  0.14205257     0.97000
O3          O  0.25092946  0.97969640  0.14336788    -0.71400
O4          O  0.22775571  0.96206684  0.19147572    -0.75000
Al5        Al  0.23645645  0.99886256  0.17686938     1.49000
C6          C  0.22544724  0.95663975  0.21783695     0.92300
O7          O  0.29594521  0.96556249  0.23212362    -0.81200
O8          O  0.31208526  0.03861202  0.19372370    -0.74800
Al9        Al  0.27076515  0.99808150  0.23295941     1.90100
O10         O  0.32577994  0.98178024  0.19984143    -0.73900
O11         O  0.28581923  0.02830031  0.14561585    -0.73700
O12         O  0.29515269  0.96986358  0.15531342    -0.79400
O13         O  0.24204994  0.03580378  0.16154660    -0.77600
O14         O  0.26978903  0.00051107  0.19517610    -1.13700
O15         O  0.21406738  0.01702041  0.20583439    -0.72900
C16         C  0.22039360  0.03156184  0.22758845     0.97800
C17         C  0.31960016  0.96363823  0.21887643     0.94200
Al18       Al  0.30209294  0.00434275  0.17509322     1.55600
O19         O  0.23940289  0.97129355  0.23582221    -0.77500
C20         C  0.26357218  0.04382102  0.14732302     0.98400
C21         C  0.31438207  0.04185444  0.22036149     0.93200
O22         O  0.30210852  0.02476033  0.23757731    -0.82900
O23         O  0.75860137  0.96960261  0.24471786    -0.82300
C24         C  0.73779926  0.04425675  0.15132814     0.97000
O25         O  0.76012659  0.02933807  0.15505255    -0.71400
O26         O  0.78206327  0.03915031  0.20513557    -0.75000
Al27       Al  0.77193629  0.00523793  0.18590215     1.49000
C28         C  0.78326305  0.04212611  0.23183498     0.92300
O29         O  0.71105501  0.03585342  0.24131933    -0.81200
O30         O  0.69429097  0.96650430  0.19710194    -0.74800
Al31       Al  0.73481877  0.00254522  0.24082837     1.90100
O32         O  0.68247176  0.02328705  0.20651219    -0.73900
O33         O  0.72242681  0.97948483  0.15061206    -0.73700
O34         O  0.71449533  0.03729327  0.16318841    -0.79400
O35         O  0.76626877  0.97124163  0.16508210    -0.77600
O36         O  0.73769906  0.00308396  0.20271072    -1.13700
O37         O  0.79122407  0.98215613  0.21299656    -0.72900
C38         C  0.78329055  0.96700358  0.23383205     0.97800
C39         C  0.68838656  0.03964332  0.22708715     0.94200
Al40       Al  0.70612727  0.00175690  0.18117297     1.55600
O41         O  0.76711803  0.02741804  0.24794834    -0.77500
C42         C  0.74542898  0.96516775  0.14924034     0.98400
C43         C  0.69105162  0.96090002  0.22327330     0.93200
O44         O  0.70240681  0.97666806  0.24213597    -0.82900
O45         O  0.23469905  0.24955190  0.04288579    -0.82300
C46         C  0.14278549  0.27163363  0.96821314     0.97000
O47         O  0.14403329  0.24990790  0.98431513    -0.71400
O48         O  0.19359938  0.22554902  0.97454282    -0.75000
Al49       Al  0.17485058  0.23733963  0.00841931     1.49000
C50         C  0.22037411  0.22389705  0.97100137     0.92300
O51         O  0.23172283  0.29558361  0.97522170    -0.81200
O52         O  0.18775817  0.31450070  0.04521940    -0.74800
Al53       Al  0.23103766  0.27270178  0.00941065     1.90100
O54         O  0.19874317  0.32589711  0.98879259    -0.73900
O55         O  0.14026344  0.28813555  0.03222897    -0.73700
O56         O  0.15520571  0.29452663  0.97490162    -0.79400
O57         O  0.15442034  0.24483249  0.04246292    -0.77600
O58         O  0.19280626  0.27087233  0.00950740    -1.13700
O59         O  0.20174933  0.21775936  0.03184561    -0.72900
C60         C  0.22292130  0.22546387  0.04669428     0.97800
C61         C  0.21836543  0.31891388  0.97149001     0.94200
Al62       Al  0.17212992  0.30301867  0.01021619     1.55600
O63         O  0.23707753  0.23970351  0.98527040    -0.77500
C64         C  0.13907139  0.26630818  0.04816715     0.98400
C65         C  0.21408244  0.31830901  0.04982494     0.93200
O66         O  0.23297688  0.30592161  0.03448200    -0.82900
O67         O  0.24024933  0.75487545  0.97792404    -0.82300
C68         C  0.14848751  0.72556840  0.05225222     0.97000
O69         O  0.14961748  0.74765430  0.03668022    -0.71400
O70         O  0.19895072  0.77146807  0.04987316    -0.75000
Al71       Al  0.18113144  0.76242214  0.01472532     1.49000
C72         C  0.22572269  0.77505230  0.05238989     0.92300
O73         O  0.24111173  0.70518776  0.04271959    -0.81200
O74         O  0.19743240  0.68655686  0.97414559    -0.74800
Al75       Al  0.23846572  0.72964371  0.01025111     1.90100
O76         O  0.20780436  0.67436483  0.03061241    -0.73900
O77         O  0.14961353  0.71215417  0.98690615    -0.73700
O78         O  0.16228490  0.70351477  0.04503550    -0.79400
O79         O  0.16228139  0.75669147  0.97964859    -0.77600
O80         O  0.20025968  0.72959285  0.01132368    -1.13700
O81         O  0.20795415  0.78511932  0.99411373    -0.72900
C82         C  0.22902403  0.77955947  0.97804365     0.97800
C83         C  0.22861611  0.68150970  0.04625203     0.94200
Al84       Al  0.18079451  0.69684401  0.00936574     1.55600
O85         O  0.24286889  0.76134292  0.03634602    -0.77500
C86         C  0.14837671  0.73484998  0.97208666     0.98400
C87         C  0.22370552  0.68573126  0.96779837     0.93200
O88         O  0.24200124  0.69823848  0.98340845    -0.82900
O89         O  0.97011474  0.24593237  0.76364514    -0.82300
C90         C  0.04270081  0.15135283  0.74306213     0.97000
O91         O  0.02644943  0.15335534  0.76469010    -0.71400
O92         O  0.03805850  0.20325891  0.78592256    -0.75000
Al93       Al  0.00344702  0.18553681  0.77653782     1.49000
C94         C  0.04317720  0.22972220  0.78599884     0.92300
O95         O  0.03509042  0.23968031  0.71443085    -0.81200
O96         O  0.96513469  0.19576354  0.70013198    -0.74800
Al97       Al  0.00244182  0.24017726  0.73906201     1.90100
O98         O  0.02122603  0.20473217  0.68681826    -0.73900
O99         O  0.97811185  0.14952679  0.72856064    -0.73700
O100        O  0.03578171  0.16279610  0.71975007    -0.79400
O101        O  0.96866463  0.16640264  0.77093469    -0.77600
O102        O  0.00189136  0.20211426  0.74241761    -1.13700
O103        O  0.98143605  0.21386110  0.79606807    -0.72900
C104        C  0.96714937  0.23546300  0.78834395     0.97800
C105        C  0.03739452  0.22577040  0.69144436     0.94200
Al106      Al  0.00020027  0.17997931  0.71142529     1.55600
O107        O  0.02884656  0.24649037  0.77020566    -0.77500
C108        C  0.96259565  0.14977451  0.75075067     0.98400
C109        C  0.95994638  0.22198366  0.69637473     0.93200
O110        O  0.97575818  0.24113667  0.70740302    -0.82900
O111        O  0.03013514  0.24349483  0.25565779    -0.82300
C112        C  0.96515352  0.14432462  0.27954217     0.97000
O113        O  0.98053649  0.14732168  0.25741308    -0.71400
O114        O  0.96272309  0.19652709  0.23639024    -0.75000
Al115      Al  0.99974972  0.18164545  0.24438743     1.49000
C116        C  0.95666860  0.22291800  0.23537758     0.92300
O117        O  0.96613158  0.23425616  0.30626065    -0.81200
O118        O  0.03975176  0.19620250  0.32015265    -0.74800
Al119      Al  0.99835813  0.23662348  0.28097531     1.90100
O120        O  0.98311178  0.20070168  0.33403114    -0.73900
O121        O  0.03051751  0.14893234  0.29191154    -0.73700
O122        O  0.97182084  0.15682494  0.30233441    -0.79400
O123        O  0.03703416  0.16593508  0.24895880    -0.77600
O124        O  0.00140668  0.19871781  0.27826895    -1.13700
O125        O  0.01780121  0.21172388  0.22340959    -0.72900
C126        C  0.03177498  0.23365653  0.23054780     0.97800
C127        C  0.96493959  0.22013164  0.32931158     0.94200
Al128      Al  0.00592513  0.17731464  0.30944154     1.55600
O129        O  0.97112183  0.24060316  0.24998502    -0.77500
C130        C  0.04589770  0.15108081  0.26968363     0.98400
C131        C  0.04188032  0.22269701  0.32467222     0.93200
O132        O  0.02511926  0.24034973  0.31250060    -0.82900
O133        O  0.96940721  0.76306627  0.25565570    -0.82300
C134        C  0.04266443  0.85778081  0.27150344     0.97000
O135        O  0.02666045  0.85422286  0.25012623    -0.71400
O136        O  0.03804958  0.80333361  0.22987026    -0.75000
Al137      Al  0.00347634  0.82214875  0.23991075     1.49000
C138        C  0.04246458  0.77670564  0.23084753     0.92300
O139        O  0.03601827  0.76926018  0.30274776    -0.81200
O140        O  0.96597937  0.81367702  0.31846392    -0.74800
Al141      Al  0.00247845  0.76853063  0.27905969     1.90100
O142        O  0.02286340  0.80497797  0.32986939    -0.73900
O143        O  0.97886488  0.85915236  0.28829523    -0.73700
O144        O  0.03656916  0.84646400  0.29520402    -0.79400
O145        O  0.96899427  0.84237779  0.24577822    -0.77600
O146        O  0.00222644  0.80648846  0.27469176    -1.13700
O147        O  0.98079637  0.79379270  0.22188120    -0.72900
C148        C  0.96596281  0.77310839  0.23083665     0.97800
C149        C  0.03948527  0.78425775  0.32494110     0.94200
Al150      Al  0.00116511  0.82922341  0.30529206     1.55600
O151        O  0.02783670  0.76088940  0.24734600    -0.77500
C152        C  0.96356599  0.85913175  0.26612145     0.98400
C153        C  0.96116048  0.78748821  0.32318890     0.93200
O154        O  0.97654913  0.76828107  0.31151272    -0.82900
O155        O  0.76349230  0.76527104  0.03260186    -0.82300
C156        C  0.86100408  0.73492276  0.97233128     0.97000
O157        O  0.84722295  0.75728126  0.97847430    -0.71400
O158        O  0.80033372  0.78553125  0.98777063    -0.75000
Al159      Al  0.82632358  0.76535445  0.01183032     1.49000
C160        C  0.77921384  0.77836294  0.97261299     0.92300
O161        O  0.76610447  0.69818070  0.98498533    -0.81200
O162        O  0.80066451  0.67879945  0.03369383    -0.74800
Al163      Al  0.76907066  0.73161439  0.00939423     1.90100
O164        O  0.81085915  0.68622663  0.97682846    -0.73900
O165        O  0.84569620  0.70841537  0.04596486    -0.73700
O166        O  0.85875144  0.71267821  0.98758332    -0.79400
O167        O  0.85660796  0.75291425  0.03654801    -0.77600
O168        O  0.80752797  0.73211417  0.01060904    -1.13700
O169        O  0.80713315  0.77742252  0.04517495    -0.72900
C170        C  0.78035764  0.78053667  0.04719832     0.97800
C171        C  0.78461956  0.68415136  0.97082967     0.94200
Al172      Al  0.82737869  0.69937910  0.01102371     1.55600
O173        O  0.76736894  0.75425103  0.97559631    -0.77500
C174        C  0.85867840  0.73111131  0.05236119     0.98400
C175        C  0.77883239  0.68572915  0.04811838     0.93200
O176        O  0.76605798  0.70919765  0.04354907    -0.82900
O177        O  0.24068040  0.97183195  0.77465684    -0.82300
C178        C  0.26912414  0.03962808  0.87092887     0.97000
O179        O  0.24715813  0.02392058  0.86881421    -0.71400
O180        O  0.22308885  0.03981848  0.82073402    -0.75000
Al181      Al  0.23264531  0.00367055  0.83631627     1.49000
C182        C  0.22119291  0.04551144  0.79446303     0.92300
O183        O  0.29092874  0.03608565  0.77933393    -0.81200
O184        O  0.30801051  0.96400579  0.81848234    -0.74800
Al185      Al  0.26618050  0.00374917  0.77934127     1.90100
O186        O  0.32147408  0.02053147  0.81132649    -0.73900
O187        O  0.28279745  0.97499213  0.86715729    -0.73700
O188        O  0.29139987  0.03343280  0.85683456    -0.79400
O189        O  0.23864449  0.96738681  0.85329300    -0.77600
O190        O  0.26565130  0.00186249  0.81735140    -1.13700
O191        O  0.21055280  0.98446272  0.80846490    -0.72900
C192        C  0.21609661  0.97048448  0.78610458     0.97800
C193        C  0.31474762  0.03791724  0.79184141     0.94200
Al194      Al  0.29823483  0.99851571  0.83689249     1.55600
O195        O  0.23506551  0.03071693  0.77637114    -0.77500
C196        C  0.26006739  0.96021465  0.86803681     0.98400
C197        C  0.30976559  0.95991783  0.79187533     0.93200
O198        O  0.29746563  0.97691017  0.77467817    -0.82900
O199        O  0.03334769  0.75826200  0.76992759    -0.82300
C200        C  0.96053536  0.85143606  0.74135592     0.97000
O201        O  0.97609304  0.85022189  0.76333515    -0.71400
O202        O  0.96197010  0.80080989  0.78610109    -0.75000
Al203      Al  0.99768167  0.81816506  0.77753756     1.49000
C204        C  0.95781405  0.77412913  0.78758789     0.92300
O205        O  0.96945333  0.75952509  0.71842887    -0.81200
O206        O  0.03881063  0.80270054  0.70175729    -0.74800
Al207      Al  0.00137978  0.76137699  0.74379317     1.90100
O208        O  0.98203061  0.79398686  0.68945835    -0.73900
O209        O  0.02666456  0.85039231  0.72810385    -0.73700
O210        O  0.96811856  0.83859587  0.71895324    -0.79400
O211        O  0.03335892  0.83658633  0.77223905    -0.77600
O212        O  0.00104411  0.79962385  0.74449674    -1.13700
O213        O  0.01789270  0.79085582  0.79986390    -0.72900
C214        C  0.03342126  0.76934442  0.79462418     0.97800
C215        C  0.96602994  0.77295965  0.69530006     0.94200
Al216      Al  0.00370361  0.81982477  0.71227481     1.55600
O217        O  0.97407271  0.75689391  0.77423913    -0.77500
C218        C  0.04142359  0.85084570  0.75076331     0.98400
C219        C  0.04378842  0.77628505  0.69965909     0.93200
O220        O  0.02856255  0.75811314  0.71283611    -0.82900
O221        O  0.77488987  0.24968648  0.97339386    -0.82300
C222        C  0.86245184  0.27797311  0.05237379     0.97000
O223        O  0.86186954  0.25566989  0.03718304    -0.71400
O224        O  0.81335725  0.22826609  0.04446885    -0.75000
Al225      Al  0.83336263  0.24151138  0.01153717     1.49000
C226        C  0.78653801  0.22483398  0.04607903     0.92300
O227        O  0.77090887  0.29591723  0.04129796    -0.81200
O228        O  0.81539109  0.31922411  0.97378926    -0.74800
Al229      Al  0.77493418  0.27313033  0.00728490     1.90100
O230        O  0.80365094  0.32785394  0.03043209    -0.73900
O231        O  0.86407770  0.29535743  0.98655569    -0.73700
O232        O  0.84943323  0.30030042  0.04461812    -0.79400
O233        O  0.85520780  0.25008846  0.97870586    -0.77600
O234        O  0.81327818  0.27404337  0.00912271    -1.13700
O235        O  0.80934607  0.22033403  0.98661957    -0.72900
C236        C  0.78881544  0.22651668  0.97019099     0.97800
C237        C  0.78333662  0.31948111  0.04619280     0.94200
Al238      Al  0.83167364  0.30768663  0.00888594     1.55600
O239        O  0.77000008  0.24002310  0.03102103    -0.77500
C240        C  0.86781108  0.27290745  0.97201693     0.98400
C241        C  0.78894972  0.32064975  0.96841733     0.93200
O242        O  0.77110185  0.30597557  0.98264421    -0.82900
O243        O  0.76232071  0.03211517  0.77848140    -0.82300
C244        C  0.73529968  0.96116621  0.87239601     0.97000
O245        O  0.75789648  0.97582577  0.87002327    -0.71400
O246        O  0.77888691  0.96048512  0.82021625    -0.75000
Al247      Al  0.77170031  0.99645772  0.83729425     1.49000
C248        C  0.78073483  0.95648029  0.79361953     0.92300
O249        O  0.71035242  0.96908873  0.78082134    -0.81200
O250        O  0.69559191  0.03884654  0.82349159    -0.74800
Al251      Al  0.73635977  0.00048996  0.78188841     1.90100
O252        O  0.68230274  0.98224327  0.81626171    -0.73900
O253        O  0.72359486  0.02819442  0.87026228    -0.73700
O254        O  0.71262876  0.96938692  0.86045514    -0.79400
O255        O  0.76796666  0.03238441  0.85498109    -0.77600
O256        O  0.73795411  0.00041424  0.81994313    -1.13700
O257        O  0.79383422  0.01564216  0.80905144    -0.72900
C258        C  0.78737305  0.03202028  0.78865688     0.97800
C259        C  0.68710588  0.96678021  0.79460720     0.94200
Al260      Al  0.70618140  0.00429918  0.84100379     1.55600
O261        O  0.76698869  0.97269344  0.77663230    -0.77500
C262        C  0.74703396  0.04197494  0.86915523     0.98400
C263        C  0.69365296  0.04439076  0.79728194     0.93200
O264        O  0.70572823  0.02830181  0.77904274    -0.82900
O265        O  0.46860348  0.25740600  0.26836189    -0.82300
C266        C  0.54034753  0.22739414  0.36069742     0.97000
O267        O  0.52484019  0.24965607  0.35973495    -0.71400
O268        O  0.53741724  0.27594553  0.31192417    -0.75000
Al269      Al  0.50230501  0.26478952  0.32893183     1.49000
C270        C  0.54201868  0.27834218  0.28547306     0.92300
O271        O  0.53388182  0.20867880  0.26948055    -0.81200
O272        O  0.46302581  0.18895425  0.31011344    -0.74800
Al273      Al  0.50106301  0.23277886  0.27116382     1.90100
O274        O  0.51987853  0.17707101  0.30091364    -0.73900
O275        O  0.47510617  0.21275523  0.35887926    -0.73700
O276        O  0.53317115  0.20535305  0.34698458    -0.79400
O277        O  0.46710869  0.25762137  0.34756196    -0.77600
O278        O  0.50036125  0.23222836  0.30919715    -1.13700
O279        O  0.48074446  0.28712101  0.30257716    -0.72900
C280        C  0.46617392  0.28129151  0.28070686     0.97800
C281        C  0.53645439  0.18432690  0.28079291     0.94200
Al282      Al  0.49802142  0.19888548  0.32778470     1.55600
O283        O  0.52704676  0.26442907  0.26779642    -0.77500
C284        C  0.46008301  0.23521498  0.36077647     0.98400
C285        C  0.45863251  0.18779469  0.28356087     0.93200
O286        O  0.47476509  0.20131388  0.26640067    -0.82900
O287        O  0.26291547  0.46624224  0.27009593    -0.82300
C288        C  0.35598316  0.53952549  0.24126489     0.97000
O289        O  0.35364616  0.52376896  0.26295544    -0.71400
O290        O  0.30438675  0.53748502  0.28698395    -0.75000
Al291      Al  0.32172798  0.50233928  0.27695364     1.49000
C292        C  0.27769645  0.54166221  0.28942995     0.92300
O293        O  0.25862157  0.53108819  0.22149796    -0.81200
O294        O  0.30244200  0.46703631  0.19757924    -0.74800
Al295      Al  0.26343866  0.49890184  0.24559857     1.90100
O296        O  0.29486081  0.52487596  0.19190981    -0.73900
O297        O  0.35058906  0.47418679  0.22436326    -0.73700
O298        O  0.34138302  0.53396383  0.21953564    -0.79400
O299        O  0.34049736  0.46725868  0.26992997    -0.77600
O300        O  0.30186382  0.50028236  0.24433761    -1.13700
O301        O  0.29534076  0.48174463  0.29990335    -0.72900
C302        C  0.27467641  0.46549194  0.29423679     0.97800
C303        C  0.27222503  0.53785038  0.19923104     0.94200
Al304      Al  0.32080217  0.50000760  0.21116807     1.55600
O305        O  0.26004598  0.52534107  0.27687170    -0.77500
C306        C  0.35326401  0.45985905  0.24728714     0.98400
C307        C  0.27651730  0.45966351  0.19858448     0.93200
O308        O  0.25898139  0.47256435  0.21466340    -0.82900
O309        O  0.25786813  0.25087843  0.47613944    -0.82300
C310        C  0.24698201  0.34668843  0.54838152     0.97000
O311        O  0.26793755  0.34262562  0.53161071    -0.71400
O312        O  0.28614272  0.29117192  0.54338861    -0.75000
Al313      Al  0.27665090  0.30935510  0.50886578     1.49000
C314        C  0.28457909  0.26472327  0.54854734     0.92300
O315        O  0.21256000  0.25912913  0.54313541    -0.81200
O316        O  0.19742446  0.30388557  0.47384496    -0.74800
Al317      Al  0.23560360  0.25731067  0.50950365     1.90100
O318        O  0.18624045  0.29572462  0.53049582    -0.73900
O319        O  0.22962267  0.34794900  0.48541863    -0.73700
O320        O  0.22283040  0.33586786  0.54309624    -0.79400
O321        O  0.27070175  0.32847848  0.47391709    -0.77600
O322        O  0.24127834  0.29502679  0.50883661    -1.13700
O323        O  0.29344130  0.27971204  0.48662864    -0.72900
C324        C  0.28286788  0.26000386  0.47167032     0.97800
C325        C  0.19058393  0.27461135  0.54670112     0.94200
Al326      Al  0.21152765  0.31896548  0.50830906     1.55600
O327        O  0.26775644  0.24884367  0.53440821    -0.77500
C328        C  0.25046569  0.34545669  0.46828527     0.98400
C329        C  0.19198902  0.27793557  0.46883187     0.93200
O330        O  0.20259148  0.25823810  0.48431996    -0.82900
O331        O  0.26174090  0.73913679  0.54040596    -0.82300
C332        C  0.23081188  0.64901472  0.46647871     0.97000
O333        O  0.25311534  0.64955200  0.48165894    -0.71400
O334        O  0.27702092  0.69880747  0.46809631    -0.75000
Al335      Al  0.26827953  0.68078066  0.50340485     1.49000
C336        C  0.27964212  0.72556583  0.46463252     0.92300
O337        O  0.20956073  0.74203477  0.47759451    -0.81200
O338        O  0.19243272  0.69661037  0.54507472    -0.74800
Al339      Al  0.23563864  0.73808754  0.50882743     1.90100
O340        O  0.18005741  0.70748431  0.48922851    -0.73900
O341        O  0.21809447  0.64868560  0.53141728    -0.73700
O342        O  0.20874355  0.66262511  0.47399653    -0.79400
O343        O  0.26266878  0.66192518  0.53866854    -0.77600
O344        O  0.23541778  0.69994498  0.50731553    -1.13700
O345        O  0.29163626  0.70689896  0.52387574    -0.72900
C346        C  0.28604063  0.72706988  0.54086188     0.97800
C347        C  0.18560706  0.72966872  0.47487922     0.94200
Al348      Al  0.20259840  0.68040927  0.50969742     1.55600
O349        O  0.26662816  0.74267175  0.48133658    -0.77500
C350        C  0.24083131  0.64786369  0.54613198     0.98400
C351        C  0.19107654  0.72286674  0.55120878     0.93200
O352        O  0.20501085  0.74103057  0.53660990    -0.82900
O353        O  0.26371365  0.53273854  0.74777536    -0.82300
C354        C  0.35737817  0.46098644  0.77702285     0.97000
O355        O  0.35656918  0.47694805  0.75522318    -0.71400
O356        O  0.30921142  0.46583446  0.72824443    -0.75000
Al357      Al  0.32581906  0.50026353  0.74089711     1.49000
C358        C  0.28285118  0.46043518  0.72577911     0.92300
O359        O  0.26466177  0.46678846  0.79665883    -0.81200
O360        O  0.30587956  0.53676444  0.81698489    -0.74800
Al361      Al  0.26691697  0.49995045  0.77240892     1.90100
O362        O  0.29722282  0.47980941  0.82738770    -0.73900
O363        O  0.35572708  0.52569576  0.79370059    -0.73700
O364        O  0.34324829  0.46741955  0.79909222    -0.79400
O365        O  0.34447981  0.53508324  0.74958207    -0.77600
O366        O  0.30538733  0.50087714  0.77315499    -1.13700
O367        O  0.29979696  0.52277838  0.71922646    -0.72900
C368        C  0.27744025  0.53699793  0.72481657     0.97800
C369        C  0.27646871  0.46395931  0.82075560     0.94200
Al370      Al  0.32395682  0.50227843  0.80641451     1.55600
O371        O  0.26441282  0.47405249  0.74041066    -0.77500
C372        C  0.35789872  0.54157077  0.77195764     0.98400
C373        C  0.27930619  0.54178911  0.81771622     0.93200
O374        O  0.26173887  0.52608190  0.80428533    -0.82900
O375        O  0.53767665  0.74474605  0.26748169    -0.82300
C376        C  0.46016046  0.77052005  0.35721026     0.97000
O377        O  0.47628027  0.74870459  0.35633946    -0.71400
O378        O  0.46624098  0.72386648  0.30724805    -0.75000
Al379      Al  0.50038068  0.73493542  0.32577987     1.49000
C380        C  0.46359827  0.72130569  0.28056974     0.92300
O381        O  0.47069789  0.79188562  0.26569146    -0.81200
O382        O  0.53868459  0.81165050  0.31088060    -0.74800
Al383      Al  0.50417532  0.76838787  0.26884545     1.90100
O384        O  0.48207987  0.82272677  0.29904054    -0.73900
O385        O  0.52476503  0.78613977  0.35829918    -0.73700
O386        O  0.46679799  0.79284975  0.34358425    -0.79400
O387        O  0.53471084  0.74232004  0.34554732    -0.77600
O388        O  0.50249958  0.76796002  0.30687374    -1.13700
O389        O  0.52352408  0.71363653  0.29977503    -0.72900
C390        C  0.53977475  0.72050897  0.27929207     0.97800
C391        C  0.46730335  0.81595259  0.27754336     0.94200
Al392      Al  0.50297291  0.80060724  0.32643111     1.55600
O393        O  0.47933825  0.73563413  0.26363593    -0.77500
C394        C  0.54087552  0.76434485  0.35972792     0.98400
C395        C  0.54444809  0.81440357  0.28471762     0.93200
O396        O  0.52981489  0.80108272  0.26616696    -0.82900
O397        O  0.73901664  0.53477816  0.27039786    -0.82300
C398        C  0.65012375  0.45741932  0.24192905     0.97000
O399        O  0.65078038  0.47291088  0.26390137    -0.71400
O400        O  0.69993405  0.46270549  0.28940932    -0.75000
Al401      Al  0.68089558  0.49674541  0.27800273     1.49000
C402        C  0.72674238  0.46056282  0.29277501     0.92300
O403        O  0.74471261  0.46861239  0.22261967    -0.81200
O404        O  0.69921895  0.53400530  0.20028990    -0.74800
Al405      Al  0.73945181  0.50156748  0.24639432     1.90100
O406        O  0.70999911  0.47716205  0.19236770    -0.73900
O407        O  0.65071843  0.52320173  0.22522633    -0.73700
O408        O  0.66381042  0.46447416  0.21985722    -0.79400
O409        O  0.66029667  0.53073798  0.27043114    -0.77600
O410        O  0.70102077  0.49934414  0.24547069    -1.13700
O411        O  0.70578150  0.51976202  0.30001022    -0.72900
C412        C  0.72585316  0.53678559  0.29396068     0.97800
C413        C  0.73221005  0.46329136  0.19933106     0.94200
Al414      Al  0.68244011  0.49964476  0.21228810     1.55600
O415        O  0.74375263  0.47637796  0.27871329    -0.77500
C416        C  0.64755918  0.53782243  0.24780478     0.98400
C417        C  0.72525658  0.54097640  0.19945934     0.93200
O418        O  0.74347442  0.52747699  0.21429296    -0.82900
O419        O  0.74125398  0.74815207  0.47959271    -0.82300
C420        C  0.76748492  0.65195947  0.54897829     0.97000
O421        O  0.74514015  0.65504933  0.53413211    -0.71400
O422        O  0.72392127  0.70474341  0.54971105    -0.75000
Al423      Al  0.73172687  0.68803322  0.51371930     1.49000
C424        C  0.72312717  0.73130864  0.55471490     0.92300
O425        O  0.79312405  0.74371077  0.54273922    -0.81200
O426        O  0.80815874  0.70145578  0.47247264    -0.74800
Al427      Al  0.76741251  0.74357543  0.51104672     1.90100
O428        O  0.82145462  0.70883294  0.52886355    -0.73900
O429        O  0.78008131  0.65453263  0.48418192    -0.73700
O430        O  0.79013036  0.66501699  0.54225345    -0.79400
O431        O  0.73622629  0.67043109  0.47768586    -0.77600
O432        O  0.76551291  0.70544696  0.51055974    -1.13700
O433        O  0.71005749  0.71651328  0.49465697    -0.72900
C434        C  0.71617685  0.73784500  0.47935661     0.97800
C435        C  0.81590046  0.72928905  0.54558877     0.94200
Al436      Al  0.79725830  0.68418782  0.50722063     1.55600
O437        O  0.73689611  0.74861992  0.53885777    -0.77500
C438        C  0.75738239  0.65568677  0.46943095     0.98400
C439        C  0.81077005  0.72785738  0.46747491     0.93200
O440        O  0.79834716  0.74622383  0.48325701    -0.82900
O441        O  0.73653343  0.46770411  0.74918192    -0.82300
C442        C  0.64922523  0.54646558  0.77716806     0.97000
O443        O  0.64894976  0.53047922  0.75545170    -0.71400
O444        O  0.69844782  0.54049400  0.73103347    -0.75000
Al445      Al  0.67895303  0.50649714  0.74100177     1.49000
C446        C  0.72530724  0.54271686  0.72814406     0.92300
O447        O  0.73978375  0.53322486  0.79826686    -0.81200
O448        O  0.69349637  0.46562256  0.81696165    -0.74800
Al449      Al  0.73603560  0.50055744  0.77380810     1.90100
O450        O  0.70609876  0.52168770  0.82871596    -0.73900
O451        O  0.64589755  0.48071075  0.79184954    -0.73700
O452        O  0.66175017  0.53828057  0.79953099    -0.79400
O453        O  0.65798008  0.47254195  0.74728353    -0.77600
O454        O  0.69786451  0.50277180  0.77378030    -1.13700
O455        O  0.70442287  0.48378189  0.71901134    -0.72900
C456        C  0.72415171  0.46636053  0.72522575     0.97800
C457        C  0.72768412  0.53672162  0.82223288     0.94200
Al458      Al  0.67827270  0.50170628  0.80651719     1.55600
O459        O  0.74182779  0.52623134  0.74194968    -0.77500
C460        C  0.64360894  0.46613348  0.76919870     0.98400
C461        C  0.71980890  0.45933889  0.81857447     0.93200
O462        O  0.73836123  0.47423264  0.80547079    -0.82900
O463        O  0.47209755  0.74566609  0.75268928    -0.82300
C464        C  0.54195716  0.77576807  0.65919533     0.97000
O465        O  0.52546661  0.75429718  0.65888656    -0.71400
O466        O  0.54127789  0.73014239  0.70682737    -0.75000
Al467      Al  0.50500952  0.73896351  0.69138287     1.49000
C468        C  0.54733739  0.72874484  0.73302212     0.92300
O469        O  0.53524008  0.79778361  0.74924380    -0.81200
O470        O  0.46373684  0.81378626  0.70853297    -0.74800
Al471      Al  0.50356684  0.77207102  0.74843854     1.90100
O472        O  0.52004101  0.82782337  0.71693986    -0.73900
O473        O  0.47603519  0.78849081  0.66002923    -0.73700
O474        O  0.53456148  0.79811780  0.67232478    -0.79400
O475        O  0.46852740  0.74454025  0.67477197    -0.77600
O476        O  0.50230710  0.77178525  0.71048023    -1.13700
O477        O  0.48616752  0.71593752  0.71925808    -0.72900
C478        C  0.47166335  0.72105031  0.74148088     0.97800
C479        C  0.53731690  0.82161963  0.73669226     0.94200
Al480      Al  0.49886205  0.80437311  0.69089238     1.55600
O481        O  0.53183697  0.74172070  0.75132078    -0.77500
C482        C  0.46070773  0.76608712  0.66052673     0.98400
C483        C  0.45950113  0.81561819  0.73510113     0.93200
O484        O  0.47573889  0.80275864  0.75272016    -0.82900
O485        O  0.52596148  0.26675821  0.75604523    -0.82300
C486        C  0.46114013  0.23318846  0.66297445     0.97000
O487        O  0.46824700  0.25570910  0.67576108    -0.71400
O488        O  0.48000888  0.28571777  0.72042886    -0.75000
Al489      Al  0.50278041  0.26357883  0.69477517     1.49000
C490        C  0.46463690  0.27970321  0.74191308     0.92300
O491        O  0.47729195  0.20067661  0.76017627    -0.81200
O492        O  0.52236085  0.17778524  0.72525261    -0.74800
Al493      Al  0.50175329  0.23338863  0.75362981     1.90100
O494        O  0.46450477  0.18819969  0.71692238    -0.73900
O495        O  0.53352381  0.20355806  0.67713624    -0.73700
O496        O  0.47500748  0.21020049  0.66685231    -0.79400
O497        O  0.52596677  0.24816906  0.66457379    -0.77600
O498        O  0.50120719  0.23160090  0.71542716    -1.13700
O499        O  0.53742609  0.27586559  0.71161055    -0.72900
C500        C  0.54078976  0.28040383  0.73789112     0.97800
C501        C  0.46051235  0.18758935  0.74353681     0.94200
Al502      Al  0.49902940  0.19774764  0.69799305     1.55600
O503        O  0.46799116  0.25643986  0.75532205    -0.77500
C504        C  0.54040130  0.22529427  0.66271193     0.98400
C505        C  0.53926033  0.18648953  0.74449912     0.93200
O506        O  0.53555904  0.21074381  0.75583139    -0.82900
O507        O  0.73901777  0.25552322  0.54270659    -0.82300
C508        C  0.76619110  0.34970332  0.47091045     0.97000
O509        O  0.74384083  0.34701643  0.48598395    -0.71400
O510        O  0.72137022  0.29760621  0.47208834    -0.75000
Al511      Al  0.73002326  0.31491191  0.50742397     1.49000
C512        C  0.71975808  0.27091547  0.46815587     0.92300
O513        O  0.78983312  0.25682004  0.47869086    -0.81200
O514        O  0.80652760  0.30060231  0.54716882    -0.74800
Al515      Al  0.76462880  0.25862278  0.51067566     1.90100
O516        O  0.81904438  0.29141161  0.49104545    -0.73900
O517        O  0.77940820  0.34786911  0.53520242    -0.73700
O518        O  0.78862060  0.33607911  0.47729473    -0.79400
O519        O  0.73540817  0.33298405  0.54288075    -0.77600
O520        O  0.76350842  0.29678524  0.51019662    -1.13700
O521        O  0.70800105  0.28749357  0.52774801    -0.72900
C522        C  0.71429657  0.26670652  0.54371454     0.97800
C523        C  0.81340865  0.26976640  0.47598825     0.94200
Al524      Al  0.79569477  0.31733312  0.51244102     1.55600
O525        O  0.73361780  0.25372013  0.48397977    -0.77500
C526        C  0.75698093  0.34717141  0.55054418     0.98400
C527        C  0.80874255  0.27432735  0.55271904     0.93200
O528        O  0.79590507  0.25590058  0.53756183    -0.82900
C529        C  0.61689578  0.21657892  0.63501329    -0.11900
C530        C  0.61537460  0.23224644  0.60949555     0.14600
C531        C  0.58836852  0.24211911  0.59984362     0.01500
C532        C  0.56416329  0.23884446  0.61731777    -0.16300
C533        C  0.56590944  0.22475495  0.64377132    -0.11100
C534        C  0.59252954  0.21269873  0.65223780     0.08300
C535        C  0.64245706  0.24054210  0.59496778     0.09300
S536        S  0.58352854  0.25971012  0.56581198    -0.25400
H537        H  0.54378697  0.24761756  0.61031095     0.19600
S538        S  0.59754516  0.19422375  0.68567800    -0.31100
H539        H  0.63751472  0.20871471  0.64234638     0.09900
C540        C  0.65129897  0.26940677  0.59418360     0.03100
C541        C  0.67545145  0.27697127  0.57801812    -0.13400
C542        C  0.69170678  0.25625485  0.56333676    -0.09100
C543        C  0.68372602  0.22711563  0.56542514     0.06500
C544        C  0.65932312  0.21954759  0.58142441    -0.14100
S545        S  0.63191062  0.29672735  0.61379284    -0.31100
H546        H  0.68144897  0.29932379  0.57633314     0.10800
S547        S  0.70235180  0.19896722  0.54658809    -0.28200
H548        H  0.65272201  0.19731534  0.58231403     0.08000
H549        H  0.58058305  0.21350508  0.70136491     0.26400
H550        H  0.65170234  0.31901708  0.60917755     0.21200
H551        H  0.70636494  0.21479601  0.52134399     0.26500
H552        H  0.60717717  0.24683005  0.55209174     0.15400
C553        C  0.59545690  0.40612797  0.74346283    -0.11900
C554        C  0.59952294  0.38557352  0.76504754     0.14600
C555        C  0.61638773  0.39276858  0.78910776     0.01500
C556        C  0.62854201  0.42018083  0.79093194    -0.16300
C557        C  0.62534467  0.44027569  0.76877032    -0.11100
C558        C  0.60813631  0.43323673  0.74502554     0.08300
C559        C  0.58664164  0.35677040  0.76080096     0.09300
S560        S  0.62484612  0.36775452  0.81736798    -0.25400
H561        H  0.64219119  0.42519099  0.80894410     0.19600
S562        S  0.60152001  0.45787794  0.71604266    -0.31100
H563        H  0.58245392  0.40087402  0.72505712     0.09900
C564        C  0.56409980  0.34639183  0.77815648     0.03100
C565        C  0.55123168  0.32005807  0.77148607    -0.13400
C566        C  0.55969196  0.30416464  0.74730567    -0.09100
C567        C  0.58299960  0.31421693  0.73057570     0.06500
C568        C  0.59601144  0.34031525  0.73744756    -0.14100
S569        S  0.55000756  0.36766514  0.80729256    -0.31100
H570        H  0.53312698  0.31276185  0.78416556     0.10800
S571        S  0.59701681  0.29508896  0.70003024    -0.28200
H572        H  0.61346545  0.34818475  0.72410383     0.08000
H573        H  0.60320848  0.48284582  0.73278461     0.26400
H574        H  0.52961808  0.34766272  0.81703384     0.21200
H575        H  0.59197996  0.26765535  0.71145628     0.26500
H576        H  0.62089215  0.34250692  0.80157270     0.15400
C577        C  0.63492430  0.62667068  0.78424882    -0.11900
C578        C  0.61260946  0.63037145  0.76455908     0.14600
C579        C  0.60155228  0.60616615  0.75021703     0.01500
C580        C  0.61322766  0.57907249  0.75557179    -0.16300
C581        C  0.63550368  0.57515906  0.77539053    -0.11100
C582        C  0.64631081  0.59945344  0.78999240     0.08300
C583        C  0.60149156  0.65960815  0.75880119     0.09300
S584        S  0.57283981  0.60831314  0.72447795    -0.25400
H585        H  0.60490881  0.56086665  0.74394957     0.19600
S586        S  0.67621692  0.59772482  0.81421435    -0.31100
H587        H  0.64375142  0.64520624  0.79498184     0.09900
C588        C  0.58513967  0.67464060  0.77929750     0.03100
C589        C  0.57032474  0.69950072  0.77109498    -0.13400
C590        C  0.57068853  0.70909112  0.74257026    -0.09100
C591        C  0.59026856  0.69614225  0.72314021     0.06500
C592        C  0.60528414  0.67143353  0.73150153    -0.14100
S593        S  0.58075890  0.66070423  0.81509864    -0.31100
H594        H  0.55638614  0.70999929  0.78647918     0.10800
S595        S  0.59619376  0.71031186  0.68759292    -0.28200
H596        H  0.61890141  0.66030342  0.71626655     0.08000
H597        H  0.66172179  0.57974706  0.83362939     0.26400
H598        H  0.56318476  0.68293316  0.82557490     0.21200
H599        H  0.61894162  0.69194589  0.67986953     0.26500
H600        H  0.55856149  0.63151424  0.73730868     0.15400
C601        C  0.74321049  0.36417882  0.62846914    -0.11900
C602        C  0.74975838  0.39342371  0.62929574     0.14600
C603        C  0.76050443  0.40708102  0.60447871     0.01500
C604        C  0.76395207  0.39125398  0.57925655    -0.16300
C605        C  0.75604287  0.36231623  0.57810123    -0.11100
C606        C  0.74636893  0.34845209  0.60327735     0.08300
C607        C  0.74318950  0.40944063  0.65573101     0.09300
S608        S  0.76931129  0.44471286  0.60326302    -0.25400
H609        H  0.77159898  0.40188453  0.56010846     0.19600
S610        S  0.73822180  0.31067185  0.60504881    -0.31100
H611        H  0.73521727  0.35364231  0.64754022     0.09900
C612        C  0.71475897  0.41758008  0.66203648     0.03100
C613        C  0.70932032  0.43490588  0.68579069    -0.13400
C614        C  0.73170443  0.44460043  0.70342682    -0.09100
C615        C  0.76010792  0.43530779  0.69773023     0.06500
C616        C  0.76549743  0.41762608  0.67405073    -0.14100
S617        S  0.68553999  0.40732930  0.63885272    -0.31100
H618        H  0.68748890  0.44170441  0.69016622     0.10800
S619        S  0.79051122  0.44669265  0.71843832    -0.28200
H620        H  0.78733707  0.41114595  0.66918715     0.08000
H621        H  0.75761294  0.30189549  0.58368339     0.26400
H622        H  0.66316044  0.41878304  0.65564304     0.21200
H623        H  0.78189251  0.47553950  0.71956110     0.26500
H624        H  0.74917338  0.45392580  0.62374365     0.15400
C625        C  0.77161088  0.57771671  0.67023159    -0.11900
C626        C  0.75152363  0.59639530  0.65798482     0.14600
C627        C  0.72469800  0.60027684  0.67145824     0.01500
C628        C  0.71750401  0.58367162  0.69522707    -0.16300
C629        C  0.73674329  0.56339105  0.70662573    -0.11100
C630        C  0.76481056  0.56146242  0.69466205     0.08300
C631        C  0.75782682  0.60938867  0.62972350     0.09300
S632        S  0.69858178  0.62577169  0.65885452    -0.25400
H633        H  0.69621677  0.58623201  0.70448101     0.19600
S634        S  0.79194361  0.53777156  0.70906952    -0.31100
H635        H  0.79235711  0.57518506  0.65989986     0.09900
C636        C  0.77805658  0.63153602  0.62634338     0.03100
C637        C  0.78209862  0.64393432  0.59925907    -0.13400
C638        C  0.76636150  0.63453982  0.57543238    -0.09100
C639        C  0.74733819  0.61117283  0.57869008     0.06500
C640        C  0.74298956  0.59919349  0.60577991    -0.14100
S641        S  0.79744595  0.64511948  0.65679157    -0.31100
H642        H  0.79657287  0.66190574  0.59692121     0.10800
S643        S  0.72845847  0.59523982  0.54912798    -0.28200
H644        H  0.72795395  0.58168052  0.60825270     0.08000
H645        H  0.81411481  0.54479290  0.68980504     0.26400
H646        H  0.81304568  0.66628807  0.64200029     0.21200
H647        H  0.75055151  0.59994420  0.52903785     0.26500
H648        H  0.71930636  0.64609465  0.65076126     0.15400
C649        C  0.66726591  0.73357211  0.61408216    -0.11900
C650        C  0.65403841  0.75990951  0.60813402     0.14600
C651        C  0.66720533  0.77894089  0.58872539     0.01500
C652        C  0.69176678  0.77017835  0.57372923    -0.16300
C653        C  0.70317819  0.74242656  0.57709076    -0.11100
C654        C  0.69178983  0.72463961  0.59888837     0.08300
C655        C  0.62518333  0.76557988  0.62031383     0.09300
S656        S  0.65228254  0.81363808  0.58037226    -0.25400
H657        H  0.70069051  0.78449881  0.55776006     0.19600
S658        S  0.70822067  0.69064091  0.60763900    -0.31100
H659        H  0.65755672  0.71953009  0.62984289     0.09900
C660        C  0.60011902  0.75781731  0.60539647     0.03100
C661        C  0.57310483  0.76195676  0.61822259    -0.13400
C662        C  0.57063187  0.77391332  0.64561023    -0.09100
C663        C  0.59595612  0.78168993  0.66047371     0.06500
C664        C  0.62282414  0.77753155  0.64761458    -0.14100
S665        S  0.60266370  0.74207578  0.57023444    -0.31100
H666        H  0.55377718  0.75570872  0.60697431     0.10800
S667        S  0.59591181  0.79499942  0.69663444    -0.28200
H668        H  0.64217101  0.78303868  0.65926332     0.08000
H669        H  0.68620480  0.68094967  0.62585986     0.26400
H670        H  0.57313075  0.73698274  0.56664915     0.21200
H671        H  0.57354838  0.77737473  0.70632657     0.26500
H672        H  0.63973223  0.81849920  0.60729886     0.15400
C673        C  0.74117532  0.40140167  0.41348533    -0.11900
C674        C  0.75798619  0.39249913  0.39021468     0.14600
C675        C  0.77971589  0.37182351  0.39441763     0.01500
C676        C  0.78316301  0.35954045  0.42151611    -0.16300
C677        C  0.76534547  0.36738623  0.44460922    -0.11100
C678        C  0.74490368  0.38952636  0.44064039     0.08300
C679        C  0.75291009  0.40653968  0.36238881     0.09300
S680        S  0.80338048  0.35985798  0.36618474    -0.25400
H681        H  0.79909854  0.34272733  0.42420066     0.19600
S682        S  0.72351540  0.40425212  0.46933605    -0.31100
H683        H  0.72514532  0.41809214  0.41047290     0.09900
C684        C  0.72963248  0.39864012  0.34498360     0.03100
C685        C  0.72240153  0.41577787  0.32137916    -0.13400
C686        C  0.73795229  0.44079788  0.31495904    -0.09100
C687        C  0.76212225  0.44777711  0.33193776     0.06500
C688        C  0.76947710  0.43041060  0.35514416    -0.14100
S689        S  0.70877903  0.36713874  0.35338531    -0.31100
H690        H  0.70405836  0.41017488  0.30838917     0.10800
S691        S  0.78257154  0.48014980  0.32739795    -0.28200
H692        H  0.78717300  0.43657944  0.36878336     0.08000
H693        H  0.74522925  0.40170458  0.49005805     0.26400
H694        H  0.68933120  0.36957496  0.33056687     0.21200
H695        H  0.75808127  0.49781857  0.32848178     0.26500
H696        H  0.78499838  0.36598630  0.34322989     0.15400
C697        C  0.76691769  0.58329747  0.34665511    -0.11900
C698        C  0.74424209  0.59244186  0.36438982     0.14600
C699        C  0.71574098  0.58580362  0.35681316     0.01500
C700        C  0.71059070  0.56926158  0.33259832    -0.16300
C701        C  0.73320263  0.55864945  0.31563123    -0.11100
C702        C  0.76171102  0.56651795  0.32221863     0.08300
C703        C  0.75051496  0.60898588  0.39063697     0.09300
S704        S  0.68496719  0.59694546  0.37765236    -0.25400
H705        H  0.68857703  0.56370826  0.32752460     0.19600
S706        S  0.79158112  0.55413839  0.30074654    -0.31100
H707        H  0.78871699  0.58889625  0.35237544     0.09900
C708        C  0.76251167  0.59584051  0.41503567     0.03100
C709        C  0.76530191  0.61169905  0.44040383    -0.13400
C710        C  0.75576273  0.64022305  0.44195946    -0.09100
C711        C  0.74458802  0.65351519  0.41715078     0.06500
C712        C  0.74201174  0.63776501  0.39191814    -0.14100
S713        S  0.77277245  0.55848344  0.41431841    -0.31100
H714        H  0.77408703  0.60163139  0.45934405     0.10800
S715        S  0.73370227  0.69063434  0.41602437    -0.28200
H716        H  0.73289487  0.64790915  0.37313541     0.08000
H717        H  0.81321311  0.56874674  0.31569664     0.26400
H718        H  0.77863027  0.55585987  0.44368604     0.21200
H719        H  0.75547460  0.70059309  0.43424603     0.26500
H720        H  0.69823618  0.59419202  0.40446474     0.15400
C721        C  0.64183780  0.75612475  0.45296299    -0.11900
C722        C  0.64699947  0.76169446  0.42406004     0.14600
C723        C  0.67569167  0.76347062  0.41404532     0.01500
C724        C  0.69842045  0.75751442  0.43288869    -0.16300
C725        C  0.69298896  0.75007288  0.46149621    -0.11100
C726        C  0.66431615  0.75072907  0.47172823     0.08300
C727        C  0.62151341  0.76358685  0.40532322     0.09300
S728        S  0.68469044  0.77214529  0.37750887    -0.25400
H729        H  0.72028796  0.75739869  0.42486455     0.19600
S730        S  0.65486913  0.74500064  0.50864121    -0.31100
H731        H  0.61991770  0.75536826  0.46089471     0.09900
C732        C  0.61355381  0.74051921  0.38773475     0.03100
C733        C  0.58701312  0.74127575  0.37369136    -0.13400
C734        C  0.56780502  0.76451621  0.37696962    -0.09100
C735        C  0.57606210  0.78761031  0.39486228     0.06500
C736        C  0.60276400  0.78691387  0.40854247    -0.14100
S737        S  0.63656129  0.70943513  0.38417651    -0.31100
H738        H  0.58123521  0.72345433  0.36015564     0.10800
S739        S  0.55353330  0.81819419  0.40217854    -0.28200
H740        H  0.60862228  0.80430483  0.42267284     0.08000
H741        H  0.67939105  0.75915362  0.51850302     0.26400
H742        H  0.62084575  0.69590040  0.36244189     0.21200
H743        H  0.52949533  0.80141213  0.40945224     0.26500
H744        H  0.65845756  0.78519709  0.37033674     0.15400
C745        C  0.57077621  0.65781877  0.23928392    -0.11900
C746        C  0.58934219  0.64648028  0.26004273     0.14600
C747        C  0.59572157  0.66310093  0.28448086     0.01500
C748        C  0.58060595  0.68858952  0.28935161    -0.16300
C749        C  0.56067158  0.69896214  0.26944495    -0.11100
C750        C  0.55691053  0.68415753  0.24346147     0.08300
C751        C  0.60150216  0.61733240  0.25567555     0.09300
S752        S  0.62247917  0.65285150  0.31041322    -0.25400
H753        H  0.58382615  0.70006493  0.30921894     0.19600
S754        S  0.53287468  0.69655625  0.21603121    -0.31100
H755        H  0.56645925  0.64569030  0.22001706     0.09900
C756        C  0.59651245  0.59474919  0.27519097     0.03100
C757        C  0.61109149  0.56860526  0.27160316    -0.13400
C758        C  0.62940377  0.56398463  0.24811179    -0.09100
C759        C  0.63239309  0.58586658  0.22733645     0.06500
C760        C  0.61864516  0.61231297  0.23153204    -0.14100
S761        S  0.57109936  0.59889921  0.30422203    -0.31100
H762        H  0.60838011  0.55166682  0.28722566     0.10800
S763        S  0.65503999  0.58135436  0.19631164    -0.16200
H764        H  0.62187496  0.62956316  0.21636865     0.08000
H765        H  0.54129079  0.72537881  0.21801366     0.26400
H766        H  0.57558566  0.57183652  0.31673860     0.21200
H767        H  0.65038482  0.60850157  0.18405087     0.26500
H768        H  0.63984275  0.63714600  0.29136753     0.15400
C769        C  0.42302230  0.33475275  0.78511480    -0.11900
C770        C  0.40884687  0.34937959  0.76300827     0.14600
C771        C  0.40987872  0.33823602  0.73500817     0.01500
C772        C  0.42711253  0.31444509  0.72921500    -0.16300
C773        C  0.44299219  0.30096929  0.75085235    -0.11100
C774        C  0.44012064  0.31065390  0.77934843     0.08300
C775        C  0.39651650  0.37806941  0.76871780     0.09300
S776        S  0.39062227  0.35412781  0.70554465    -0.25400
H777        H  0.42879637  0.30681941  0.70735731     0.19600
S778        S  0.45949208  0.29493379  0.80875283    -0.31100
H779        H  0.42220487  0.34322380  0.80668109     0.09900
C780        C  0.37182129  0.38189351  0.78573523     0.03100
C781        C  0.36055337  0.40956690  0.78940341    -0.13400
C782        C  0.37317980  0.43346610  0.77596661    -0.09100
C783        C  0.39833795  0.42951231  0.75939736     0.06500
C784        C  0.40971831  0.40196007  0.75607501    -0.14100
S785        S  0.35346344  0.35139854  0.80098910    -0.31100
H786        H  0.34092841  0.41239760  0.80158603     0.10800
S787        S  0.41699780  0.45852930  0.74195580    -0.28200
H788        H  0.42890737  0.39901101  0.74322420     0.08000
H789        H  0.48560608  0.29234054  0.79384283     0.26400
H790        H  0.33232871  0.36698971  0.81596795     0.21200
H791        H  0.41123402  0.47880552  0.76348101     0.26500
H792        H  0.36815608  0.36573595  0.72209685     0.15400
C793        C  0.39861896  0.60918551  0.79531066    -0.11900
C794        C  0.40449173  0.62172930  0.76869802     0.14600
C795        C  0.39699201  0.60686887  0.74359544     0.01500
C796        C  0.38313863  0.58040843  0.74562560    -0.16300
C797        C  0.37574686  0.56819587  0.77216068    -0.11100
C798        C  0.38440569  0.58272885  0.79740370     0.08300
C799        C  0.42166802  0.64838996  0.76727514     0.09300
S800        S  0.40540077  0.61998497  0.70820816    -0.25400
H801        H  0.37810442  0.56919956  0.72601948     0.19600
S802        S  0.37900184  0.56872503  0.83288405    -0.31100
H803        H  0.40538890  0.62002995  0.81464256     0.09900
C804        C  0.40901102  0.67594746  0.76758340     0.03100
C805        C  0.42594835  0.70014556  0.76095829    -0.13400
C806        C  0.45525035  0.69702710  0.75430292    -0.09100
C807        C  0.46802358  0.66957662  0.75662586     0.06500
C808        C  0.45118169  0.64567689  0.76264615    -0.14100
S809        S  0.37106801  0.67990288  0.77457373    -0.31100
H810        H  0.41613240  0.72113971  0.75946767     0.10800
S811        S  0.50595088  0.66377537  0.75233679    -0.28200
H812        H  0.46106658  0.62459973  0.76303451     0.08000
H813        H  0.34919717  0.56645375  0.82990400     0.26400
H814        H  0.37011546  0.70990852  0.77170952     0.21200
H815        H  0.51264167  0.68882032  0.76744412     0.26500
H816        H  0.40375778  0.64932691  0.71467190     0.15400
C817        C  0.23558919  0.58948189  0.60290251    -0.11900
C818        C  0.24357888  0.60493702  0.62740745     0.14600
C819        C  0.24933618  0.63455362  0.62484879     0.01500
C820        C  0.24874714  0.64755035  0.59795559    -0.16300
C821        C  0.24148065  0.63202799  0.57339418    -0.11100
C822        C  0.23435099  0.60274250  0.57595095     0.08300
C823        C  0.25053019  0.58910971  0.65410540     0.09300
S824        S  0.25773102  0.65691772  0.65512106    -0.25400
H825        H  0.25359375  0.67022487  0.59621717     0.19600
S826        S  0.22517606  0.58088774  0.54556883    -0.31100
H827        H  0.23158300  0.56664690  0.60456875     0.09900
C828        C  0.22985035  0.57399163  0.67030877     0.03100
C829        C  0.23857027  0.55832729  0.69462408    -0.13400
C830        C  0.26748920  0.55804145  0.70321557    -0.09100
C831        C  0.28747288  0.57500451  0.68798816     0.06500
C832        C  0.27906563  0.58950685  0.66336317    -0.14100
S833        S  0.19251155  0.57479677  0.66015331    -0.31100
H834        H  0.22314372  0.54544977  0.70623395     0.10800
S835        S  0.32392485  0.57990129  0.69942118    -0.28200
H836        H  0.29494599  0.60156345  0.65140182     0.08000
H837        H  0.24190529  0.59591908  0.52546873     0.26400
H838        H  0.18196256  0.56048052  0.68449537     0.21200
H839        H  0.31685024  0.58001752  0.72870087     0.26500
H840        H  0.24245760  0.64058522  0.67536096     0.15400
C841        C  0.33282431  0.77296093  0.42359594    -0.11900
C842        C  0.34912151  0.75202040  0.40937076     0.14600
C843        C  0.33955782  0.72339112  0.40971204     0.01500
C844        C  0.31570141  0.71585078  0.42632927    -0.16300
C845        C  0.30038425  0.73631196  0.44251783    -0.11100
C846        C  0.30827036  0.76560620  0.43955183     0.08300
C847        C  0.37750365  0.75971195  0.39694295     0.09300
S848        S  0.35777829  0.69523477  0.39037651    -0.25400
H849        H  0.30978570  0.69339627  0.42734823     0.19600
S850        S  0.28869464  0.79465208  0.45593268    -0.31100
H851        H  0.33971644  0.79514164  0.42285118     0.09900
C852        C  0.38017084  0.77427632  0.37065740     0.03100
C853        C  0.40765436  0.77917455  0.35909276    -0.13400
C854        C  0.43251968  0.76913458  0.37290472    -0.09100
C855        C  0.42973383  0.75511313  0.39955435     0.06500
C856        C  0.40237091  0.75062346  0.41122695    -0.14100
S857        S  0.34859967  0.78470343  0.35087731    -0.31100
H858        H  0.40972784  0.78953253  0.33843388     0.10800
S859        S  0.46017704  0.74241291  0.41969787    -0.28200
H860        H  0.40036506  0.73947107  0.43150511     0.08000
H861        H  0.26167317  0.78411096  0.44762381     0.26400
H862        H  0.36302433  0.79353924  0.32589416     0.21200
H863        H  0.47909100  0.76406738  0.41054715     0.26500
H864        H  0.36750568  0.71275399  0.36789910     0.15400
C865        C  0.38310722  0.75043008  0.64164120    -0.11900
C866        C  0.38288139  0.75622517  0.61222936     0.14600
C867        C  0.40785702  0.76765445  0.59920119     0.01500
C868        C  0.43259034  0.77220673  0.61567768    -0.16300
C869        C  0.43323218  0.76487091  0.64476979    -0.11100
C870        C  0.40781840  0.75471379  0.65801777     0.08300
C871        C  0.35672406  0.74893531  0.59565441     0.09300
S872        S  0.40997506  0.77581277  0.56153839    -0.25400
H873        H  0.45189196  0.78018481  0.60540782     0.19600
S874        S  0.40530021  0.74700395  0.69579046    -0.31100
H875        H  0.36391066  0.74213647  0.65185127     0.09900
C876        C  0.34936484  0.72011328  0.59046340     0.03100
C877        C  0.32553735  0.71386061  0.57338832    -0.13400
C878        C  0.30878785  0.73572597  0.56112967    -0.09100
C879        C  0.31586672  0.76461092  0.56678273     0.06500
C880        C  0.33952747  0.77088707  0.58421556    -0.14100
S881        S  0.37099710  0.69117379  0.60457739    -0.31100
H882        H  0.32011019  0.69170105  0.56916058     0.10800
S883        S  0.29686228  0.79426432  0.55091634    -0.28200
H884        H  0.34518429  0.79306785  0.58812792     0.08000
H885        H  0.42595107  0.76699264  0.70462752     0.26400
H886        H  0.35675922  0.66870627  0.59052294     0.21200
H887        H  0.29466069  0.78157444  0.52375651     0.26500
H888        H  0.39109621  0.75428409  0.55234411     0.15400
C889        C  0.24400784  0.42364054  0.66454284    -0.11900
C890        C  0.26438446  0.40292026  0.65668367     0.14600
C891        C  0.28894542  0.39884002  0.67377126     0.01500
C892        C  0.29353508  0.41690570  0.69717409    -0.16300
C893        C  0.27405801  0.43899074  0.70412984    -0.11100
C894        C  0.24860256  0.44181930  0.68784472     0.08300
C895        C  0.26047710  0.38793302  0.62916424     0.09300
S896        S  0.31582816  0.37190779  0.66622277    -0.25400
H897        H  0.31294625  0.41419986  0.70957807     0.19600
S898        S  0.22247402  0.46976664  0.69370219    -0.31100
H899        H  0.22511641  0.42670753  0.65143871     0.09900
C900        C  0.24228726  0.36405253  0.62689408     0.03100
C901        C  0.23782413  0.35157008  0.60007232    -0.13400
C902        C  0.25106788  0.36256769  0.57534517    -0.09100
C903        C  0.26917508  0.38672842  0.57768196     0.06500
C904        C  0.27385968  0.39897888  0.60459202    -0.14100
S905        S  0.22549124  0.34896274  0.65831634    -0.31100
H906        H  0.22454148  0.33263248  0.59845907     0.10800
S907        S  0.28587522  0.40362712  0.54719263    -0.28200
H908        H  0.28749413  0.41767183  0.60634262     0.08000
H909        H  0.24303410  0.49180351  0.69313388     0.26400
H910        H  0.20841526  0.32878664  0.64393931     0.21200
H911        H  0.26310864  0.39823099  0.52826208     0.26500
H912        H  0.29804256  0.35317280  0.65090836     0.15400
C913        C  0.34423408  0.22157995  0.58286863    -0.11900
C914        C  0.35207587  0.24008830  0.60514191     0.14600
C915        C  0.33408859  0.26361152  0.61177287     0.01500
C916        C  0.31088412  0.27004958  0.59400677    -0.16300
C917        C  0.30428039  0.25280607  0.57033781    -0.11100
C918        C  0.32009308  0.22728563  0.56583134     0.08300
C919        C  0.38083184  0.23674177  0.61843973     0.09300
S920        S  0.34023829  0.28682850  0.64195877    -0.25400
H921        H  0.29841233  0.28924280  0.59814676     0.19600
S922        S  0.31156881  0.20311820  0.53701377    -0.31100
H923        H  0.35795163  0.20354348  0.57784728     0.09900
C924        C  0.38891052  0.21182732  0.63353059     0.03100
C925        C  0.41630319  0.21028891  0.64592899    -0.13400
C926        C  0.43531331  0.23357194  0.64461446    -0.09100
C927        C  0.42773267  0.25791319  0.62828390     0.06500
C928        C  0.40069944  0.25911224  0.61527768    -0.14100
S929        S  0.36372958  0.18288414  0.63876738    -0.31100
H930        H  0.42239296  0.19141520  0.65805075     0.10800
S931        S  0.45253855  0.28726444  0.62326207    -0.28200
H932        H  0.39468798  0.27785840  0.60290354     0.08000
H933        H  0.32990695  0.18070119  0.54556570     0.26400
H934        H  0.38170922  0.16542675  0.65552767     0.21200
H935        H  0.43686287  0.30162998  0.60192793     0.26500
H936        H  0.35436823  0.26617077  0.65876884     0.15400
C937        C  0.39196310  0.61106744  0.22376422    -0.11900
C938        C  0.40283721  0.61866955  0.25064889     0.14600
C939        C  0.40073388  0.59880975  0.27335484     0.01500
C940        C  0.38620973  0.57299446  0.26929445    -0.16300
C941        C  0.37460812  0.56546189  0.24260362    -0.11100
C942        C  0.37901588  0.58436014  0.21919192     0.08300
C943        C  0.41607535  0.64734758  0.25478248     0.09300
S944        S  0.41621716  0.60500928  0.30810186    -0.25400
H945        H  0.38378498  0.55876769  0.28749357     0.19600
S946        S  0.36972229  0.57564084  0.18286188    -0.31100
H947        H  0.39399471  0.62593653  0.20602437     0.09900
C948        C  0.44122666  0.65556451  0.23999087     0.03100
C949        C  0.45475128  0.68140588  0.24713032    -0.13400
C950        C  0.44429676  0.69887169  0.26929721    -0.09100
C951        C  0.41825122  0.69137032  0.28299085     0.06500
C952        C  0.40436729  0.66591319  0.27541689    -0.14100
S953        S  0.45774134  0.63202047  0.21398651    -0.31100
H954        H  0.47483081  0.68700148  0.23678331     0.10800
S955        S  0.40200542  0.71296113  0.31068046    -0.28200
H956        H  0.38471570  0.65994277  0.28649297     0.08000
H957        H  0.38014038  0.54735090  0.18461506     0.26400
H958        H  0.48145108  0.64949913  0.20745506     0.21200
H959        H  0.41244964  0.73932129  0.30040204     0.26500
H960        H  0.44015222  0.62039296  0.29801091     0.15400
C961        C  0.22475834  0.63101849  0.38777357    -0.11900
C962        C  0.23973141  0.60498930  0.38679535     0.14600
C963        C  0.24924685  0.59218286  0.41241320     0.01500
C964        C  0.24535085  0.60660104  0.43829306    -0.16300
C965        C  0.23134837  0.63323676  0.43926352    -0.11100
C966        C  0.22051487  0.64534064  0.41369180     0.08300
C967        C  0.24756225  0.59287726  0.35874124     0.09300
S968        S  0.26708650  0.55784926  0.41325336    -0.25400
H969        H  0.25350649  0.59709532  0.45778520     0.19600
S970        S  0.20324595  0.67997018  0.41223787    -0.31100
H971        H  0.21751413  0.64083883  0.36807535     0.09900
C972        C  0.22807666  0.57642250  0.34289455     0.03100
C973        C  0.23782560  0.56196206  0.31848640    -0.13400
C974        C  0.26674266  0.56369232  0.30962417    -0.09100
C975        C  0.28509387  0.58335049  0.32361578     0.06500
C976        C  0.27551460  0.59707225  0.34842786    -0.14100
S977        S  0.19146608  0.57211759  0.35502582    -0.31100
H978        H  0.22323430  0.54777950  0.30744123     0.10800
S979        S  0.32074495  0.59205868  0.31113041    -0.28200
H980        H  0.29008490  0.61086752  0.36006477     0.08000
H981        H  0.22307918  0.69355127  0.43033144     0.26400
H982        H  0.18226029  0.55470905  0.33232395     0.21200
H983        H  0.31362973  0.59053662  0.28194724     0.26500
H984        H  0.25168286  0.54613494  0.39033344     0.15400
C985        C  0.25598624  0.43747323  0.36716987    -0.11900
C986        C  0.25621095  0.40794191  0.36236219     0.14600
C987        C  0.25910850  0.39726598  0.33424736     0.01500
C988        C  0.26323203  0.41660744  0.31164729    -0.16300
C989        C  0.26444202  0.44618766  0.31680593    -0.11100
C990        C  0.25989007  0.45664227  0.34476913     0.08300
C991        C  0.25495134  0.38947549  0.38776637     0.09300
S992        S  0.25949266  0.35948610  0.32610962    -0.25400
H993        H  0.26694206  0.40849854  0.29023990     0.19600
S994        S  0.25925477  0.49426550  0.35324604    -0.31100
H995        H  0.25338372  0.44563321  0.38874970     0.09900
C996        C  0.28019282  0.38072861  0.40172924     0.03100
C997        C  0.27812507  0.36684460  0.42821062    -0.13400
C998        C  0.25127584  0.36202083  0.44128495    -0.09100
C999        C  0.22601250  0.37107361  0.42696388     0.06500
C1000       C  0.22819496  0.38447381  0.40038416    -0.14100
S1001       S  0.31499690  0.38798944  0.38611748    -0.31100
H1002       H  0.29753348  0.35987126  0.43884610     0.10800
S1003       S  0.19026993  0.36567108  0.44070594    -0.28200
H1004       H  0.20887622  0.39178073  0.38970942     0.08000
H1005       H  0.24487535  0.50182730  0.32800293     0.26400
H1006       H  0.33147436  0.37790845  0.40919775     0.21200
H1007       H  0.19479601  0.38370491  0.46435413     0.26500
H1008       H  0.24407949  0.35034494  0.35031732     0.15400
C1009       C  0.61796035  0.21583163  0.38430025    -0.11900
C1010       C  0.62023834  0.23644183  0.40586539     0.14600
C1011       C  0.59569998  0.25223766  0.41410021     0.01500
C1012       C  0.56980015  0.24805899  0.39970408    -0.16300
C1013       C  0.56744999  0.22801408  0.37742029    -0.11100
C1014       C  0.59190851  0.21131830  0.36998147     0.08300
C1015       C  0.64875908  0.24242743  0.41829034     0.09300
S1016       S  0.59626458  0.27861931  0.44228595    -0.25400
H1017       H  0.55131438  0.26093655  0.40580098     0.19600
S1018       S  0.59130086  0.18589163  0.34087697    -0.31100
H1019       H  0.63703536  0.20395041  0.37806397     0.09900
C1020       C  0.66096931  0.22426191  0.43898650     0.03100
C1021       C  0.68588287  0.23297357  0.45320785    -0.13400
C1022       C  0.69872574  0.25960599  0.44732957    -0.09100
C1023       C  0.68798070  0.27644102  0.42454958     0.06500
C1024       C  0.66294764  0.26771904  0.41045666    -0.14100
S1025       S  0.64355169  0.19112767  0.44886253    -0.31100
H1026       H  0.69427321  0.21972977  0.47036401     0.10800
S1027       S  0.70592598  0.30888981  0.41318052    -0.28200
H1028       H  0.65374497  0.28106863  0.39378135     0.08000
H1029       H  0.61879382  0.17413893  0.34524178     0.26400
H1030       H  0.66317515  0.18291947  0.47017493     0.21200
H1031       H  0.68619897  0.31664880  0.39182182     0.26500
H1032       H  0.61781190  0.26540803  0.45867953     0.15400
C1033       C  0.39674109  0.25761128  0.40646993    -0.11900
C1034       C  0.37769060  0.23494900  0.40136811     0.14600
C1035       C  0.38646610  0.21176061  0.38408666     0.01500
C1036       C  0.41420867  0.21168416  0.37252696    -0.16300
C1037       C  0.43308959  0.23463551  0.37716631    -0.11100
C1038       C  0.42436015  0.25762191  0.39472936     0.08300
C1039       C  0.34948154  0.23599953  0.41570971     0.09300
S1040       S  0.36336524  0.18196502  0.37563673    -0.25400
H1041       H  0.42074095  0.19408351  0.35888342     0.19600
S1042       S  0.44777153  0.28693462  0.40380527    -0.31100
H1043       H  0.39016998  0.27519003  0.42016537     0.09900
C1044       C  0.34388626  0.21946592  0.44032345     0.03100
C1045       C  0.31934807  0.22540777  0.45666426    -0.13400
C1046       C  0.30080371  0.24779209  0.44910034    -0.09100
C1047       C  0.30516834  0.26273977  0.42323717     0.06500
C1048       C  0.32953672  0.25668929  0.40679337    -0.14100
S1049       S  0.36949263  0.19311791  0.45271107    -0.31100
H1050       H  0.31591014  0.21429344  0.47668649     0.10800
S1051       S  0.28194062  0.29139690  0.41134652    -0.28200
H1052       H  0.33383305  0.26925660  0.38776471     0.08000
H1053       H  0.47326293  0.27066222  0.40316098     0.26400
H1054       H  0.35291530  0.18279266  0.47571460     0.21200
H1055       H  0.25812320  0.28462471  0.42857011     0.26500
H1056       H  0.33703362  0.19600362  0.38030134     0.15400
C1057       C  0.59902900  0.33640248  0.28331915    -0.11900
C1058       C  0.59233024  0.34971626  0.25729154     0.14600
C1059       C  0.57219885  0.33692810  0.23891761     0.01500
C1060       C  0.55785249  0.31218900  0.24781395    -0.16300
C1061       C  0.56284522  0.29991538  0.27483899    -0.11100
C1062       C  0.58481934  0.31150118  0.29216293     0.08300
C1063       C  0.60569853  0.37762889  0.25079090     0.09300
S1064       S  0.56247298  0.35208080  0.20477569    -0.25400
H1065       H  0.54163321  0.30326561  0.23392624     0.19600
S1066       S  0.59583212  0.29569161  0.32560936    -0.31100
H1067       H  0.61509085  0.34586384  0.29713442     0.09900
C1068       C  0.59172590  0.40359129  0.25759693     0.03100
C1069       C  0.60635646  0.42958529  0.25379483    -0.13400
C1070       C  0.63448903  0.43004011  0.24293739    -0.09100
C1071       C  0.64811312  0.40393065  0.23554863     0.06500
C1072       C  0.63353633  0.37807771  0.23943452    -0.14100
S1073       S  0.55566344  0.40345851  0.27200024    -0.31100
H1074       H  0.59606960  0.44962356  0.25967151     0.10800
S1075       S  0.68477824  0.40197243  0.22318394    -0.28200
H1076       H  0.64431492  0.35801815  0.23444407     0.08000
H1077       H  0.59133475  0.26721176  0.31681743     0.26400
H1078       H  0.55208534  0.43339146  0.27294710     0.21200
H1079       H  0.69505168  0.42273756  0.24233488     0.26500
H1080       H  0.58865260  0.36601962  0.19940143     0.15400
C1081       C  0.43823695  0.34524013  0.24012683    -0.11900
C1082       C  0.41653443  0.35456737  0.25878692     0.14600
C1083       C  0.40858761  0.33724581  0.28228823     0.01500
C1084       C  0.42408776  0.31221349  0.28794520    -0.16300
C1085       C  0.44655246  0.30341539  0.26995230    -0.11100
C1086       C  0.45307505  0.31963797  0.24527504     0.08300
C1087       C  0.40303762  0.38277548  0.25384035     0.09300
S1088       S  0.37977930  0.34652162  0.30653427    -0.25400
H1089       H  0.41915581  0.29990590  0.30699858     0.19600
S1090       S  0.48166172  0.31016492  0.22103113    -0.31100
H1091       H  0.44411205  0.35833329  0.22190411     0.09900
C1092       C  0.40941528  0.40657992  0.27121499     0.03100
C1093       C  0.39336005  0.43189379  0.26814303    -0.13400
C1094       C  0.37129799  0.43384809  0.24786957    -0.09100
C1095       C  0.36557339  0.41009135  0.23009644     0.06500
C1096       C  0.38184936  0.38507377  0.23286749    -0.14100
S1097       S  0.43773350  0.40449405  0.29743857    -0.31100
H1098       H  0.39764700  0.45011596  0.28184260     0.10800
S1099       S  0.33581107  0.40920855  0.20580701    -0.28200
H1100       H  0.37677072  0.36658295  0.21975123     0.08000
H1101       H  0.47545576  0.28073200  0.22090724     0.26400
H1102       H  0.43549052  0.43295605  0.30709980     0.21200
H1103       H  0.31627832  0.41989812  0.22624305     0.26500
H1104       H  0.36306749  0.36170981  0.28664271     0.15400
C1105       C  0.58823469  0.88593992  0.73850258    -0.11900
C1106       C  0.60296697  0.88109004  0.76405262     0.14600
C1107       C  0.59623313  0.85667557  0.78059615     0.01500
C1108       C  0.57503106  0.83765095  0.77105726    -0.16300
C1109       C  0.56000907  0.84243357  0.74536170    -0.11100
C1110       C  0.56731978  0.86690970  0.72875742     0.08300
C1111       C  0.62502866  0.90225276  0.77250469     0.09300
S1112       S  0.61381000  0.84850993  0.81396453    -0.25400
H1113       H  0.57004749  0.81911873  0.78409060     0.19600
S1114       S  0.55202447  0.87493691  0.69435454    -0.31100
H1115       H  0.59356501  0.90454623  0.72567008     0.09900
C1116       C  0.65459179  0.89725744  0.76810070     0.03100
C1117       C  0.67444713  0.91887320  0.77483186    -0.13400
C1118       C  0.66528367  0.94545636  0.78579790    -0.09100
C1119       C  0.63547303  0.95050878  0.78938542     0.06500
C1120       C  0.61584074  0.92882463  0.78304217    -0.14100
S1121       S  0.66690112  0.86358040  0.75344895    -0.31100
H1122       H  0.69720358  0.91491365  0.77199194     0.10800
S1123       S  0.62086434  0.98460832  0.80043186    -0.28200
H1124       H  0.59304077  0.93291735  0.78570407     0.08000
H1125       H  0.55920664  0.84797991  0.68298855     0.26400
H1126       H  0.69645209  0.86970127  0.75447666     0.21200
H1127       H  0.64082318  0.00111473  0.78489216     0.26500
H1128       H  0.62126546  0.87674393  0.82115279     0.15400
C1129       C  0.64508249  0.11002056  0.79904051    -0.11900
C1130       C  0.63341901  0.10951533  0.77147829     0.14600
C1131       C  0.64510519  0.09029682  0.75108812     0.01500
C1132       C  0.66526551  0.06972385  0.75977520    -0.16300
C1133       C  0.67562458  0.06902669  0.78797204    -0.11100
C1134       C  0.66663957  0.09083240  0.80716571     0.08300
C1135       C  0.60890503  0.12899291  0.76514300     0.09300
S1136       S  0.63557048  0.09103698  0.71371217    -0.25400
H1137       H  0.67262989  0.05396164  0.74439691     0.19600
S1138       S  0.68224533  0.09616917  0.84198459    -0.31100
H1139       H  0.63726203  0.12552608  0.81447328     0.09900
C1140       C  0.58208530  0.11844159  0.75604950     0.03100
C1141       C  0.55997771  0.13778974  0.74950801    -0.13400
C1142       C  0.56331105  0.16751414  0.75338246    -0.09100
C1143       C  0.58953768  0.17779135  0.76475132     0.06500
C1144       C  0.61200228  0.15850322  0.77007087    -0.14100
S1145       S  0.57517141  0.08033502  0.75458145    -0.31100
H1146       H  0.53970362  0.12962606  0.74191426     0.10800
S1147       S  0.59612811  0.21487835  0.77339084    -0.28200
H1148       H  0.63219019  0.16660782  0.77803782     0.08000
H1149       H  0.71042496  0.09033503  0.83262438     0.26400
H1150       H  0.54692891  0.08212876  0.74414745     0.21200
H1151       H  0.58530885  0.22615234  0.74782308     0.26500
H1152       H  0.62729507  0.12002796  0.71293013     0.15400
C1153       C  0.76766640  0.39658986  0.16626631    -0.11900
C1154       C  0.75869219  0.39924876  0.13770587     0.14600
C1155       C  0.74268238  0.42365017  0.12965005     0.01500
C1156       C  0.73477727  0.44381318  0.15024309    -0.16300
C1157       C  0.74303574  0.44108872  0.17903832    -0.11100
C1158       C  0.76021590  0.41721117  0.18694443     0.08300
C1159       C  0.76531577  0.37615553  0.11671845     0.09300
S1160       S  0.73187559  0.43065308  0.09328082    -0.25400
H1161       H  0.72220723  0.46214527  0.14343658     0.19600
S1162       S  0.77280451  0.41112366  0.22283763    -0.31100
H1163       H  0.78004254  0.37799446  0.17262078     0.09900
C1164       C  0.79376068  0.36986085  0.10835663     0.03100
C1165       C  0.79865489  0.35068357  0.08580962    -0.13400
C1166       C  0.77582996  0.33762354  0.07112883    -0.09100
C1167       C  0.74739547  0.34328459  0.08007567     0.06500
C1168       C  0.74249813  0.36199001  0.10306908    -0.14100
S1169       S  0.82391146  0.38744593  0.12501575    -0.31100
H1170       H  0.82049852  0.34625394  0.07912538     0.10800
S1171       S  0.71651684  0.32928333  0.06174801    -0.28200
H1172       H  0.72061030  0.36675106  0.10942237     0.08000
H1173       H  0.74636186  0.41712977  0.23606924     0.26400
H1174       H  0.84567218  0.37192369  0.11087543     0.21200
H1175       H  0.72836645  0.33209383  0.03417309     0.26500
H1176       H  0.75629042  0.41827688  0.08043668     0.15400
C1177       C  0.78065410  0.38413645  0.91800873    -0.11900
C1178       C  0.75795396  0.37495215  0.90074922     0.14600
C1179       C  0.74574890  0.34766895  0.90555734     0.01500
C1180       C  0.75594239  0.33063864  0.92803157    -0.16300
C1181       C  0.77859454  0.33987166  0.94546923    -0.11100
C1182       C  0.79086012  0.36715747  0.94043284     0.08300
C1183       C  0.74694391  0.39497356  0.87878116     0.09300
S1184       S  0.71733621  0.33330497  0.88374837    -0.25400
H1185       H  0.74647066  0.30969904  0.93157986     0.19600
S1186       S  0.81820330  0.38243567  0.96289051    -0.31100
H1187       H  0.78987444  0.40520976  0.91454907     0.09900
C1188       C  0.72034889  0.40908016  0.88208824     0.03100
C1189       C  0.71149478  0.42895219  0.86137933    -0.13400
C1190       C  0.72893198  0.43552556  0.83760862    -0.09100
C1191       C  0.75533603  0.42072992  0.83414033     0.06500
C1192       C  0.76414366  0.40096913  0.85487973    -0.14100
S1193       S  0.69847922  0.40311751  0.91354034    -0.31100
H1194       H  0.69142259  0.44026451  0.86436417     0.10800
S1195       S  0.77849890  0.42539226  0.80355070    -0.28200
H1196       H  0.78452358  0.39002758  0.85232380     0.08000
H1197       H  0.80568361  0.37287789  0.98860045     0.26400
H1198       H  0.67615683  0.42213461  0.90631308     0.21200
H1199       H  0.75575844  0.42574756  0.78384431     0.26500
H1200       H  0.72436535  0.34845779  0.85870829     0.15400
C1201       C  0.79385465  0.16253870  0.92086059    -0.11900
C1202       C  0.76488457  0.15486897  0.91797734     0.14600
C1203       C  0.74353764  0.17362818  0.92884720     0.01500
C1204       C  0.75164216  0.19814805  0.94429244    -0.16300
C1205       C  0.78071666  0.20495165  0.94834140    -0.11100
C1206       C  0.80185921  0.18767928  0.93492165     0.08300
C1207       C  0.75807393  0.12663031  0.90467593     0.09300
S1208       S  0.70570904  0.16731626  0.92391105    -0.25400
H1209       H  0.73516786  0.21135254  0.95410744     0.19600
S1210       S  0.83943099  0.19691052  0.93447132    -0.31100
H1211       H  0.81044657  0.14874521  0.91212640     0.09900
C1212       C  0.76728222  0.11991375  0.87669940     0.03100
C1213       C  0.76345724  0.09208293  0.86616953    -0.13400
C1214       C  0.75005013  0.07063167  0.88257248    -0.09100
C1215       C  0.73989714  0.07758994  0.91021502     0.06500
C1216       C  0.74413465  0.10539119  0.92097719    -0.14100
S1217       S  0.78292415  0.14701620  0.85382862    -0.31100
H1218       H  0.77048272  0.08707720  0.84457722     0.10800
S1219       S  0.72261004  0.05179692  0.93318536    -0.28200
H1220       H  0.73720701  0.11030607  0.94261320     0.08000
H1221       H  0.83426352  0.22656207  0.93226495     0.26400
H1222       H  0.79124782  0.12857443  0.83148662     0.21200
H1223       H  0.73896164  0.02816122  0.92389988     0.26500
H1224       H  0.70856091  0.15260335  0.89781956     0.15400
C1225       C  0.90497466  0.73463373  0.65557583    -0.11900
C1226       C  0.89984944  0.75402882  0.63321543     0.14600
C1227       C  0.91604084  0.77948430  0.63180459     0.01500
C1228       C  0.93742928  0.78449935  0.65202248    -0.16300
C1229       C  0.94292576  0.76520928  0.67457225    -0.11100
C1230       C  0.92598898  0.73999057  0.67636288     0.08300
C1231       C  0.87839306  0.74678737  0.61098484     0.09300
S1232       S  0.91073091  0.80644691  0.60459699    -0.25400
H1233       H  0.94965310  0.80424270  0.65021118     0.19600
S1234       S  0.93040944  0.71342170  0.70392225    -0.31100
H1235       H  0.89253590  0.71497446  0.65673797     0.09900
C1236       C  0.88702806  0.73851558  0.58327929     0.03100
C1237       C  0.86616620  0.73338165  0.56235475    -0.13400
C1238       C  0.83669941  0.73592108  0.56855164    -0.09100
C1239       C  0.82808786  0.74306544  0.59671935     0.06500
C1240       C  0.84899116  0.74880668  0.61746773    -0.14100
S1241       S  0.92465491  0.73404159  0.57468791    -0.31100
H1242       H  0.87282807  0.72740398  0.54097595     0.10800
S1243       S  0.79097314  0.74365084  0.60794425    -0.28200
H1244       H  0.84232155  0.75466149  0.63889241     0.08000
H1245       H  0.92325714  0.73270362  0.72597662     0.26400
H1246       H  0.92084042  0.72419259  0.54655184     0.21200
H1247       H  0.78284140  0.71952429  0.59187791     0.26500
H1248       H  0.88153593  0.80084465  0.59964237     0.15400
C1249       C  0.08404611  0.74048301  0.63896563    -0.11900
C1250       C  0.11162791  0.75201569  0.64229667     0.14600
C1251       C  0.11698763  0.77086018  0.66526434     0.01500
C1252       C  0.09451805  0.77832254  0.68380223    -0.16300
C1253       C  0.06696505  0.76676150  0.68043012    -0.11100
C1254       C  0.06172277  0.74763000  0.65770369     0.08300
C1255       C  0.13374792  0.74502962  0.62054513     0.09300
S1256       S  0.15195699  0.78581393  0.67214572    -0.25400
H1257       H  0.09865130  0.79307948  0.70131595     0.19600
S1258       S  0.02667900  0.73302050  0.65054787    -0.31100
H1259       H  0.07970294  0.72629777  0.62107259     0.09900
C1260       C  0.14442599  0.71696225  0.61750520     0.03100
C1261       C  0.16365265  0.71074022  0.59523909    -0.13400
C1262       C  0.17226815  0.73186385  0.57543696    -0.09100
C1263       C  0.16152407  0.76016059  0.57881860     0.06500
C1264       C  0.14279763  0.76642052  0.60149794    -0.14100
S1265       S  0.13366388  0.68905657  0.64212966    -0.31100
H1266       H  0.17178137  0.68906216  0.59310631     0.10800
S1267       S  0.16923021  0.78894958  0.55427725    -0.28200
H1268       H  0.13425691  0.78795743  0.60366963     0.08000
H1269       H  0.01207201  0.75897393  0.65527844     0.26400
H1270       H  0.15028946  0.66691005  0.63007085     0.21200
H1271       H  0.16207225  0.77295867  0.52985295     0.26500
H1272       H  0.16778689  0.76268033  0.66093457     0.15400
C1273       C  0.84242098  0.90282903  0.78912522    -0.11900
C1274       C  0.85155288  0.90713477  0.76087430     0.14600
C1275       C  0.83434417  0.92361612  0.74228884     0.01500
C1276       C  0.80934068  0.93668683  0.75290740    -0.16300
C1277       C  0.80182821  0.93515257  0.78210787    -0.11100
C1278       C  0.81788988  0.91655515  0.80006066     0.08300
C1279       C  0.87980093  0.89503942  0.75242231     0.09300
S1280       S  0.84372135  0.93048442  0.70540416    -0.25400
H1281       H  0.79697584  0.95011860  0.73856154     0.19600
S1282       S  0.80810640  0.91019469  0.83703239    -0.31100
H1283       H  0.85540536  0.88946915  0.80298865     0.09900
C1284       C  0.90547960  0.90717362  0.76264604     0.03100
C1285       C  0.93169277  0.89304007  0.75784230    -0.13400
C1286       C  0.93287005  0.86712127  0.74266748    -0.09100
C1287       C  0.90708983  0.85558314  0.73147570     0.06500
C1288       C  0.88093783  0.86975720  0.73634701    -0.14100
S1289       S  0.90474589  0.94066043  0.78200326    -0.31100
H1290       H  0.95134123  0.90198215  0.76625321     0.10800
S1291       S  0.90551719  0.82191881  0.71263161    -0.28200
H1292       H  0.86117892  0.86036058  0.72865700     0.08000
H1293       H  0.82860239  0.88875542  0.84274675     0.26400
H1294       H  0.93414811  0.94133872  0.78876792     0.21200
H1295       H  0.92541447  0.80750386  0.73003950     0.26500
H1296       H  0.87316089  0.92417230  0.70702959     0.15400
C1297       C  0.38910943  0.14965995  0.74983545    -0.11900
C1298       C  0.39466741  0.13009690  0.77192571     0.14600
C1299       C  0.42089618  0.13201305  0.78697848     0.01500
C1300       C  0.44171694  0.15179984  0.77812392    -0.16300
C1301       C  0.43657324  0.17040834  0.75511799    -0.11100
C1302       C  0.40931603  0.17032483  0.74198150     0.08300
C1303       C  0.37373856  0.10669609  0.77713660     0.09300
S1304       S  0.42913568  0.10965954  0.81735942    -0.25400
H1305       H  0.46239611  0.15212824  0.78878213     0.19600
S1306       S  0.39865638  0.19658646  0.71578995    -0.31100
H1307       H  0.36885774  0.14871497  0.73845619     0.09900
C1308       C  0.34493751  0.11233028  0.78494502     0.03100
C1309       C  0.32572084  0.08942556  0.78817289    -0.13400
C1310       C  0.33485301  0.06102065  0.78443497    -0.09100
C1311       C  0.36363693  0.05539645  0.77664853     0.06500
C1312       C  0.38266190  0.07824382  0.77292038    -0.14100
S1313       S  0.33302523  0.14843808  0.79247637    -0.31100
H1314       H  0.30374122  0.09350667  0.79480651     0.10800
S1315       S  0.37725955  0.01964183  0.77079460    -0.28200
H1316       H  0.40465491  0.07382812  0.76647756     0.08000
H1317       H  0.41640150  0.21868983  0.72594656     0.26400
H1318       H  0.30428650  0.14164241  0.79888615     0.21200
H1319       H  0.35108255  0.00796121  0.76169400     0.26500
H1320       H  0.40052387  0.10612172  0.82645521     0.15400
C1321       C  0.41598207  0.87200393  0.77479368    -0.11900
C1322       C  0.38963338  0.87036375  0.76040917     0.14600
C1323       C  0.38609704  0.84983480  0.73859735     0.01500
C1324       C  0.40916131  0.83210720  0.73105309    -0.16300
C1325       C  0.43561119  0.83381978  0.74526445    -0.11100
C1326       C  0.43900591  0.85411361  0.76739792     0.08300
C1327       C  0.36699282  0.89154891  0.76749207     0.09300
S1328       S  0.35275508  0.84520234  0.71966439    -0.25400
H1329       H  0.40638183  0.81668039  0.71392498     0.19600
S1330       S  0.47262218  0.85968471  0.78555116    -0.31100
H1331       H  0.41891043  0.88805117  0.79128596     0.09900
C1332       C  0.35319896  0.89141181  0.79428368     0.03100
C1333       C  0.33376679  0.91334184  0.80105969    -0.13400
C1334       C  0.32729537  0.93533776  0.78143436    -0.09100
C1335       C  0.33962488  0.93402135  0.75368028     0.06500
C1336       C  0.35975862  0.91258877  0.74732394    -0.14100
S1337       S  0.36025909  0.86322591  0.81984393    -0.31100
H1338       H  0.32388702  0.91354786  0.82207119     0.10800
S1339       S  0.33151164  0.95920617  0.72564627    -0.28200
H1340       H  0.37003993  0.91236754  0.72648866     0.08000
H1341       H  0.48965486  0.85726358  0.76077927     0.26400
H1342       H  0.33917390  0.87135246  0.83988329     0.21200
H1343       H  0.30183227  0.95356114  0.72668889     0.26500
H1344       H  0.33472602  0.85369224  0.74232629     0.15400
C1345       C  0.11008996  0.89223753  0.73207606    -0.11900
C1346       C  0.12114181  0.89737006  0.75935629     0.14600
C1347       C  0.10575179  0.88781397  0.78356832     0.01500
C1348       C  0.07977508  0.87329890  0.77999355    -0.16300
C1349       C  0.06846184  0.86784948  0.75265300    -0.11100
C1350       C  0.08413306  0.87758628  0.72840379     0.08300
C1351       C  0.14641902  0.91622129  0.76220934     0.09300
S1352       S  0.11766745  0.89424129  0.81967133    -0.25400
H1353       H  0.06831558  0.86625953  0.79889369     0.19600
S1354       S  0.07272463  0.87191819  0.69218948    -0.31100
H1355       H  0.12161930  0.90006997  0.71350167     0.09900
C1356       C  0.17489931  0.90627259  0.75884021     0.03100
C1357       C  0.19793813  0.92482889  0.76487769    -0.13400
C1358       C  0.19270475  0.95310040  0.77382775    -0.09100
C1359       C  0.16408485  0.96340173  0.77458766     0.06500
C1360       C  0.14139101  0.94483571  0.76932888    -0.14100
S1361       S  0.18177800  0.86962000  0.74862688    -0.31100
H1362       H  0.21979208  0.91692053  0.76414988     0.10800
S1363       S  0.15510292  0.00022262  0.78190935    -0.28200
H1364       H  0.11952635  0.95269332  0.77102896     0.08000
H1365       H  0.07533407  0.84206705  0.69475271     0.26400
H1366       H  0.21155061  0.87278870  0.74442431     0.21200
H1367       H  0.17845956  0.01082871  0.76606655     0.26500
H1368       H  0.14723461  0.89444531  0.81349257     0.15400
C1369       C  0.76714329  0.59914391  0.85859761    -0.11900
C1370       C  0.75262593  0.60043883  0.88490827     0.14600
C1371       C  0.73072770  0.58045575  0.89067473     0.01500
C1372       C  0.72343656  0.56015262  0.86996506    -0.16300
C1373       C  0.73788490  0.55850496  0.84341078    -0.11100
C1374       C  0.76039325  0.57831328  0.83804174     0.08300
C1375       C  0.76120558  0.62232827  0.90625294     0.09300
S1376       S  0.71117270  0.57976520  0.92405421    -0.25400
H1377       H  0.70621380  0.54534342  0.87493352     0.19600
S1378       S  0.78138729  0.57847255  0.80564866    -0.31100
H1379       H  0.78422460  0.61432876  0.85420497     0.09900
C1380       C  0.78571792  0.61835400  0.92333991     0.03100
C1381       C  0.79276567  0.63896333  0.94394663    -0.13400
C1382       C  0.77596502  0.66378612  0.94791875    -0.09100
C1383       C  0.75162940  0.66791750  0.93028278     0.06500
C1384       C  0.74431900  0.64701490  0.90999823    -0.14100
S1385       S  0.80745335  0.58643396  0.91957340    -0.31100
H1386       H  0.81132682  0.63545899  0.95742751     0.10800
S1387       S  0.72994364  0.69989423  0.93156293    -0.28200
H1388       H  0.72554281  0.65019306  0.89670831     0.08000
H1389       H  0.78993537  0.54967756  0.80878507     0.26400
H1390       H  0.82676070  0.59247743  0.94180655     0.21200
H1391       H  0.75367333  0.71838198  0.93346372     0.26500
H1392       H  0.73408721  0.58859692  0.94138544     0.15400
C1393       C  0.76471230  0.61736275  0.08954839    -0.11900
C1394       C  0.75541309  0.62798776  0.11602291     0.14600
C1395       C  0.75253902  0.65794119  0.11973938     0.01500
C1396       C  0.75962388  0.67648109  0.09711346    -0.16300
C1397       C  0.76880561  0.66571768  0.07055615    -0.11100
C1398       C  0.77063154  0.63568475  0.06668956     0.08300
C1399       C  0.74727626  0.60686631  0.13836545     0.09300
S1400       S  0.73984204  0.67375328  0.15260549    -0.25400
H1401       H  0.75822711  0.69946099  0.10035107     0.19600
S1402       S  0.77902265  0.61921152  0.03275130    -0.31100
H1403       H  0.76642754  0.59438321  0.08638992     0.09900
C1404       C  0.72322676  0.58908269  0.13450234     0.03100
C1405       C  0.71704902  0.56786325  0.15470174    -0.13400
C1406       C  0.73382980  0.56422559  0.17939336    -0.09100
C1407       C  0.75754074  0.58267874  0.18367095     0.06500
C1408       C  0.76424041  0.60349689  0.16293149    -0.14100
S1409       S  0.70001176  0.59356344  0.10390872    -0.31100
H1410       H  0.69899477  0.55378100  0.15103069     0.10800
S1411       S  0.77932297  0.58151277  0.21537968    -0.28200
H1412       H  0.78264794  0.61729271  0.16603014     0.08000
H1413       H  0.76443664  0.63979759  0.01621389     0.26400
H1414       H  0.67821028  0.57483629  0.11310652     0.21200
H1415       H  0.75587315  0.57793919  0.23409266     0.26500
H1416       H  0.72143603  0.65117629  0.16034065     0.15400
C1417       C  0.88795713  0.71848913  0.89789040    -0.11900
C1418       C  0.90371423  0.74327967  0.89187614     0.14600
C1419       C  0.90854081  0.76348893  0.91375569     0.01500
C1420       C  0.89562004  0.75943775  0.94055450    -0.16300
C1421       C  0.87893338  0.73507081  0.94627286    -0.11100
C1422       C  0.87605949  0.71381501  0.92497716     0.08300
C1423       C  0.91370900  0.74829193  0.86222515     0.09300
S1424       S  0.93120027  0.79433326  0.90766031    -0.25400
H1425       H  0.89797392  0.77558486  0.95701207     0.19600
S1426       S  0.85611512  0.68132212  0.93117822    -0.31100
H1427       H  0.88450357  0.70300521  0.88099820     0.09900
C1428       C  0.93233901  0.72900745  0.84815314     0.03100
C1429       C  0.94263436  0.73590085  0.82085184    -0.13400
C1430       C  0.93672127  0.76276098  0.80848443    -0.09100
C1431       C  0.91539657  0.78031945  0.82109491     0.06500
C1432       C  0.90407716  0.77284809  0.84776240    -0.14100
S1433       S  0.94601151  0.69749428  0.86613314    -0.31100
H1434       H  0.95827207  0.72188493  0.81088047     0.10800
S1435       S  0.90204420  0.81255040  0.80448380    -0.28200
H1436       H  0.88839639  0.78680435  0.85780657     0.08000
H1437       H  0.85409187  0.67258643  0.90248916     0.26400
H1438       H  0.96139677  0.68614900  0.84279009     0.21200
H1439       H  0.90590034  0.80222767  0.77654190     0.26500
H1440       H  0.92818210  0.80641308  0.93504799     0.15400
C1441       C  0.72411570  0.88313635  0.89362414    -0.11900
C1442       C  0.74331513  0.88061608  0.91643758     0.14600
C1443       C  0.75813523  0.90508187  0.92608646     0.01500
C1444       C  0.75457729  0.93122170  0.91183441    -0.16300
C1445       C  0.73602312  0.93374390  0.88836940    -0.11100
C1446       C  0.72049660  0.90926230  0.87932605     0.08300
C1447       C  0.74979946  0.85180505  0.92789947     0.09300
S1448       S  0.78255099  0.90404735  0.95591719    -0.25400
H1449       H  0.76660284  0.94969281  0.91898371     0.19600
S1450       S  0.69786354  0.90902274  0.84816795    -0.31100
H1451       H  0.71298337  0.86429428  0.88602124     0.09900
C1452       C  0.73241165  0.83894363  0.94898179     0.03100
C1453       C  0.74113108  0.81289603  0.96124515    -0.13400
C1454       C  0.76716479  0.79993291  0.95321229    -0.09100
C1455       C  0.78385865  0.81219285  0.93117104     0.06500
C1456       C  0.77492896  0.83793104  0.91864208    -0.14100
S1457       S  0.70060106  0.85698815  0.96199925    -0.31100
H1458       H  0.72875371  0.80365467  0.97858458     0.10800
S1459       S  0.81733864  0.79667018  0.91914012    -0.28200
H1460       H  0.78817076  0.84777930  0.90225980     0.08000
H1461       H  0.71803405  0.92318156  0.83069433     0.26400
H1462       H  0.69373774  0.83701038  0.98350213     0.21200
H1463       H  0.81105066  0.76839359  0.92749984     0.26500
H1464       H  0.76807995  0.88249420  0.97122119     0.15400
C1465       C  0.09329694  0.78959406  0.38624636    -0.11900
C1466       C  0.10456244  0.76181867  0.38685802     0.14600
C1467       C  0.09501774  0.74154708  0.36661965     0.01500
C1468       C  0.07408184  0.74943726  0.34655609    -0.16300
C1469       C  0.06258938  0.77734941  0.34586805    -0.11100
C1470       C  0.07295532  0.79773289  0.36590430     0.08300
C1471       C  0.12544145  0.75462408  0.40959927     0.09300
S1472       S  0.10839792  0.70524248  0.36546185    -0.25400
H1473       H  0.06656480  0.73351462  0.33152369     0.19600
S1474       S  0.06235360  0.83485824  0.36626486    -0.31100
H1475       H  0.10071907  0.80522244  0.40165311     0.09900
C1476       C  0.15419746  0.76393563  0.40829196     0.03100
C1477       C  0.17328956  0.75629678  0.43024075    -0.13400
C1478       C  0.16396984  0.74033520  0.45404580    -0.09100
C1479       C  0.13439484  0.73318912  0.45622766     0.06500
C1480       C  0.11580232  0.73963494  0.43368497    -0.14100
S1481       S  0.16667337  0.78498549  0.37831945    -0.31100
H1482       H  0.19572632  0.76220902  0.42847971     0.10800
S1483       S  0.11845928  0.71728112  0.48766374    -0.28200
H1484       H  0.09336508  0.73361175  0.43525835     0.08000
H1485       H  0.06961651  0.83861459  0.33738289     0.26400
H1486       H  0.19441708  0.79021179  0.38889055     0.21200
H1487       H  0.13521219  0.73296760  0.50708780     0.26500
H1488       H  0.13550276  0.71090184  0.37727081     0.15400
C1489       C  0.84544193  0.76814931  0.40505249    -0.11900
C1490       C  0.87095133  0.75235300  0.40146804     0.14600
C1491       C  0.87613960  0.72855567  0.41939857     0.01500
C1492       C  0.85569843  0.72081062  0.43993243    -0.16300
C1493       C  0.83040215  0.73681443  0.44402406    -0.11100
C1494       C  0.82507981  0.76065651  0.42612635     0.08300
C1495       C  0.89249299  0.76193886  0.37998326     0.09300
S1496       S  0.90879470  0.70767049  0.41782592    -0.25400
H1497       H  0.86015874  0.70256171  0.45367809     0.19600
S1498       S  0.79204810  0.78085088  0.42917984    -0.31100
H1499       H  0.84160250  0.78649617  0.39127164     0.09900
C1500       C  0.89837974  0.74619627  0.35487851     0.03100
C1501       C  0.92088288  0.75491822  0.33668251    -0.13400
C1502       C  0.93761119  0.77914004  0.34301686    -0.09100
C1503       C  0.93142373  0.79485460  0.36819971     0.06500
C1504       C  0.90877246  0.78636986  0.38601852    -0.14100
S1505       S  0.87699997  0.71526896  0.34588908    -0.31100
H1506       H  0.92535745  0.74296742  0.31730607     0.10800
S1507       S  0.95284255  0.82467233  0.38000499    -0.28200
H1508       H  0.90457695  0.79824089  0.40555362     0.08000
H1509       H  0.79695679  0.79920762  0.40579749     0.26400
H1510       H  0.89239849  0.70754376  0.32112109     0.21200
H1511       H  0.97925863  0.81167073  0.37302100     0.26500
H1512       H  0.92703777  0.73049161  0.41046275     0.15400
C1513       C  0.91222386  0.75324782  0.10955526    -0.11900
C1514       C  0.90102448  0.73915646  0.13362409     0.14600
C1515       C  0.87684559  0.72128346  0.13051962     0.01500
C1516       C  0.86414724  0.71832601  0.10356516    -0.16300
C1517       C  0.87510619  0.73269857  0.07941657    -0.11100
C1518       C  0.89977643  0.75004438  0.08255073     0.08300
C1519       C  0.91495349  0.74423476  0.16156692     0.09300
S1520       S  0.86058801  0.70249687  0.16015048    -0.25400
H1521       H  0.84504403  0.70526118  0.10160776     0.19600
S1522       S  0.91682377  0.76817933  0.05298407    -0.31100
H1523       H  0.93093420  0.76680816  0.11185463     0.09900
C1524       C  0.94003505  0.72922462  0.16941340     0.03100
C1525       C  0.95489554  0.73730468  0.19415392    -0.13400
C1526       C  0.94536579  0.76035992  0.21090850    -0.09100
C1527       C  0.91962486  0.77464433  0.20367378     0.06500
C1528       C  0.90460407  0.76634983  0.17914041    -0.14100
S1529       S  0.95389835  0.70081179  0.14705152    -0.31100
H1530       H  0.97500859  0.72690450  0.19947442     0.10800
S1531       S  0.90604433  0.80483086  0.22376909    -0.28200
H1532       H  0.88541891  0.77798079  0.17303200     0.08000
H1533       H  0.91158581  0.74626782  0.03303768     0.26400
H1534       H  0.97877273  0.69519911  0.16312424     0.21200
H1535       H  0.91948441  0.79786366  0.24974777     0.26500
H1536       H  0.88559049  0.69969777  0.17664119     0.15400
C1537       C  0.88425861  0.25154023  0.44031059    -0.11900
C1538       C  0.87546867  0.24608750  0.41220556     0.14600
C1539       C  0.84579956  0.24623025  0.40573193     0.01500
C1540       C  0.82587680  0.25349668  0.42706675    -0.16300
C1541       C  0.83483527  0.25979696  0.45495868    -0.11100
C1542       C  0.86432534  0.25796730  0.46176133     0.08300
C1543       C  0.89795934  0.23979718  0.39058828     0.09300
S1544       S  0.83192600  0.23725174  0.37091309    -0.25400
H1545       H  0.80326053  0.25458589  0.42178600     0.19600
S1546       S  0.87779868  0.26268377  0.49754680    -0.31100
H1547       H  0.90688726  0.25065845  0.44559397     0.09900
C1548       C  0.90364985  0.25834491  0.36747170     0.03100
C1549       C  0.92536730  0.25125703  0.34776252    -0.13400
C1550       C  0.94220722  0.22634681  0.35102222    -0.09100
C1551       C  0.93684476  0.20833952  0.37504931     0.06500
C1552       C  0.91489854  0.21528846  0.39428284    -0.14100
S1553       S  0.88437861  0.29181714  0.36391652    -0.31100
H1554       H  0.92957610  0.26554659  0.33002524     0.10800
S1555       S  0.95679359  0.17615863  0.38302024    -0.28200
H1556       H  0.91084943  0.20132015  0.41236333     0.08000
H1557       H  0.85384686  0.25028337  0.51106015     0.26400
H1558       H  0.89648262  0.30005489  0.33757330     0.21200
H1559       H  0.95029665  0.16327140  0.35669394     0.26500
H1560       H  0.85447401  0.21878547  0.36295661     0.15400
C1561       C  0.09071617  0.22658561  0.38924519    -0.11900
C1562       C  0.10758361  0.25051131  0.38270812     0.14600
C1563       C  0.10245580  0.26573375  0.35702520     0.01500
C1564       C  0.08024212  0.25693532  0.33886081    -0.16300
C1565       C  0.06359945  0.23272853  0.34531461    -0.11100
C1566       C  0.06872566  0.21774391  0.37114624     0.08300
C1567       C  0.12995063  0.25882548  0.40355417     0.09300
S1568       S  0.12387295  0.29592586  0.34580320    -0.25400
H1569       H  0.07656227  0.26848556  0.31905474     0.19600
S1570       S  0.04697110  0.18814825  0.38314105    -0.31100
H1571       H  0.09433166  0.21502421  0.40907588     0.09900
C1572       C  0.12761501  0.28398499  0.42005233     0.03100
C1573       C  0.14860513  0.28994577  0.44062252    -0.13400
C1574       C  0.17171128  0.27107299  0.44547147    -0.09100
C1575       C  0.17414091  0.24610808  0.42852789     0.06500
C1576       C  0.15312584  0.24011779  0.40810251    -0.14100
S1577       S  0.09703237  0.30759478  0.41627578    -0.31100
H1578       H  0.14644496  0.30896846  0.45374015     0.10800
S1579       S  0.20409247  0.22177807  0.43097671    -0.28200
H1580       H  0.15496552  0.22076062  0.39538268     0.08000
H1581       H  0.02095305  0.20152099  0.37574019     0.26400
H1582       H  0.10739241  0.32968790  0.43385669     0.21200
H1583       H  0.22448323  0.24387030  0.43223232     0.26500
H1584       H  0.14904877  0.28793486  0.36028317     0.15400
C1585       C  0.91356169  0.27157331  0.18580326    -0.11900
C1586       C  0.90573009  0.25201032  0.16443971     0.14600
C1587       C  0.90991503  0.22243504  0.16948933     0.01500
C1588       C  0.92482751  0.21340387  0.19381541    -0.16300
C1589       C  0.93483967  0.23310896  0.21426354    -0.11100
C1590       C  0.92698014  0.26234858  0.21105091     0.08300
C1591       C  0.89599641  0.26274978  0.13605315     0.09300
S1592       S  0.89747480  0.19512173  0.14523372    -0.25400
H1593       H  0.92949300  0.19083344  0.19609933     0.19600
S1594       S  0.93343141  0.28905086  0.23804597    -0.31100
H1595       H  0.90974280  0.29418940  0.18257331     0.09900
C1596       C  0.87046944  0.27878498  0.13248034     0.03100
C1597       C  0.86126090  0.28582395  0.10472221    -0.13400
C1598       C  0.87678456  0.27680223  0.08049283    -0.09100
C1599       C  0.90322126  0.26249126  0.08426207     0.06500
C1600       C  0.91250416  0.25569532  0.11184656    -0.14100
S1601       S  0.84836103  0.28820637  0.16289027    -0.31100
H1602       H  0.84083327  0.29669320  0.10178432     0.10800
S1603       S  0.92585816  0.25204927  0.05466433    -0.28200
H1604       H  0.93257393  0.24408944  0.11447511     0.08000
H1605       H  0.92706821  0.27056564  0.26102079     0.26400
H1606       H  0.82650106  0.30221632  0.14752766     0.21200
H1607       H  0.91703106  0.27428129  0.03630717     0.26500
H1608       H  0.87382891  0.21082252  0.13493344     0.15400
C1609       C  0.85705164  0.27500292  0.61802181    -0.11900
C1610       C  0.87210480  0.24927500  0.61435720     0.14600
C1611       C  0.86448320  0.23066409  0.59188486     0.01500
C1612       C  0.84234557  0.23851890  0.57329049    -0.16300
C1613       C  0.82832422  0.26512724  0.57588638    -0.11100
C1614       C  0.83559997  0.28341727  0.59891943     0.08300
C1615       C  0.89493672  0.24235907  0.63510292     0.09300
S1616       S  0.88284071  0.19724586  0.58508916    -0.25400
H1617       H  0.83712902  0.22435587  0.55574274     0.19600
S1618       S  0.81756502  0.31725129  0.60501242    -0.31100
H1619       H  0.86242290  0.28865368  0.63592275     0.09900
C1620       C  0.91975550  0.25948076  0.63741556     0.03100
C1621       C  0.94007693  0.25316524  0.65853338    -0.13400
C1622       C  0.93612241  0.23001787  0.67730414    -0.09100
C1623       C  0.91085066  0.21331586  0.67527152     0.06500
C1624       C  0.89075361  0.21950370  0.65405421    -0.14100
S1625       S  0.92616641  0.28860207  0.61269769    -0.31100
H1626       H  0.95960501  0.26564482  0.65977575     0.10800
S1627       S  0.90232050  0.18452887  0.69963621    -0.28200
H1628       H  0.87135700  0.20680214  0.65267458     0.08000
H1629       H  0.83677234  0.32803751  0.62547188     0.26400
H1630       H  0.95189340  0.29828025  0.62500616     0.21200
H1631       H  0.91513255  0.19731528  0.72358652     0.26500
H1632       H  0.90979504  0.20609089  0.59520822     0.15400
C1633       C  0.08081560  0.23027580  0.62239436    -0.11900
C1634       C  0.10582766  0.24366270  0.63199640     0.14600
C1635       C  0.10789697  0.25211072  0.66084923     0.01500
C1636       C  0.08485775  0.24704117  0.67947389    -0.16300
C1637       C  0.05976701  0.23330305  0.67006865    -0.11100
C1638       C  0.05768975  0.22533020  0.64087716     0.08300
C1639       C  0.12804326  0.25118591  0.61071600     0.09300
S1640       S  0.13931545  0.26944152  0.67513953    -0.25400
H1641       H  0.08694436  0.25313355  0.70172446     0.19600
S1642       S  0.02576403  0.21022735  0.62526032    -0.31100
H1643       H  0.07896467  0.22446998  0.60004474     0.09900
C1644       C  0.14850862  0.23113087  0.60109248     0.03100
C1645       C  0.16898679  0.23947766  0.58063031    -0.13400
C1646       C  0.16926673  0.26748043  0.56935947    -0.09100
C1647       C  0.14851657  0.28750425  0.57944037     0.06500
C1648       C  0.12816033  0.27901073  0.59969720    -0.14100
S1649       S  0.14862207  0.19506578  0.61513023    -0.31100
H1650       H  0.18462535  0.22393305  0.57310553     0.10800
S1651       S  0.14700732  0.32445929  0.56834830    -0.28200
H1652       H  0.11231617  0.29438534  0.60723452     0.08000
H1653       H  0.00673563  0.22838777  0.64018632     0.26400
H1654       H  0.17092747  0.18450984  0.59767356     0.21200
H1655       H  0.17623683  0.32912382  0.57397480     0.26500
H1656       H  0.15927086  0.25684643  0.65632342     0.15400
C1657       C  0.86048509  0.05618952  0.76425138    -0.11900
C1658       C  0.85716915  0.08595426  0.76404560     0.14600
C1659       C  0.82966479  0.09809441  0.76884651     0.01500
C1660       C  0.80644723  0.08005155  0.77540408    -0.16300
C1661       C  0.81021552  0.05023025  0.77670698    -0.11100
C1662       C  0.83738159  0.03832784  0.77021260     0.08300
C1663       C  0.88348140  0.10315886  0.76044259     0.09300
S1664       S  0.82304020  0.13621072  0.76780323    -0.25400
H1665       H  0.78571698  0.08933383  0.78053475     0.19600
S1666       S  0.84384492  0.00034984  0.76911050    -0.31100
H1667       H  0.88142276  0.04680053  0.76024435     0.09900
C1668       C  0.89578467  0.11763528  0.78369269     0.03100
C1669       C  0.92205964  0.13159917  0.77997797    -0.13400
C1670       C  0.93670922  0.13133406  0.75354481    -0.09100
C1671       C  0.92478534  0.11546566  0.73063866     0.06500
C1672       C  0.89823533  0.10193944  0.73429642    -0.14100
S1673       S  0.87851967  0.11770963  0.81839559    -0.31100
H1674       H  0.93111633  0.14296153  0.79792381     0.10800
S1675       S  0.94191318  0.11136003  0.69629726    -0.28200
H1676       H  0.88918373  0.08985623  0.71676172     0.08000
H1677       H  0.81746360  0.99499289  0.75573494     0.26400
H1678       H  0.90036391  0.13215932  0.83320871     0.21200
H1679       H  0.96777440  0.10114246  0.70807492     0.26500
H1680       H  0.84654535  0.14337411  0.75027553     0.15400
C1681       C  0.12219969  0.13373832  0.73913802    -0.11900
C1682       C  0.12320777  0.10855568  0.75539555     0.14600
C1683       C  0.09738419  0.09653157  0.76582942     0.01500
C1684       C  0.07137078  0.11067789  0.76116173    -0.16300
C1685       C  0.07036190  0.13626535  0.74554714    -0.11100
C1686       C  0.09613263  0.14781649  0.73423579     0.08300
C1687       C  0.15141273  0.09688245  0.76403022     0.09300
S1688       S  0.09637536  0.06332484  0.78549912    -0.25400
H1689       H  0.05171781  0.10163312  0.76980156     0.19600
S1690       S  0.09768035  0.18161849  0.71562006    -0.31100
H1691       H  0.14203199  0.14323881  0.73143470     0.09900
C1692       C  0.16990818  0.08318536  0.74451351     0.03100
C1693       C  0.19412127  0.06860731  0.75481342    -0.13400
C1694       C  0.20023997  0.06743109  0.78431238    -0.09100
C1695       C  0.18335339  0.08421801  0.80332040     0.06500
C1696       C  0.15901573  0.09842996  0.79290414    -0.14100
S1697       S  0.16148609  0.08217220  0.70687694    -0.31100
H1698       H  0.20716860  0.05646831  0.73990196     0.10800
S1699       S  0.19160746  0.08747436  0.84095144    -0.28200
H1700       H  0.14504685  0.10995121  0.80752792     0.08000
H1701       H  0.07851004  0.19580297  0.73418610     0.26400
H1702       H  0.18808120  0.07101660  0.69772033     0.21200
H1703       H  0.17302265  0.11058780  0.84679384     0.26500
H1704       H  0.11937442  0.05077942  0.77050558     0.15400
C1705       C  0.91645600  0.24994495  0.91109325    -0.11900
C1706       C  0.90956486  0.27042150  0.89021297     0.14600
C1707       C  0.89089449  0.29326544  0.89739923     0.01500
C1708       C  0.87951148  0.29489563  0.92519633    -0.16300
C1709       C  0.88547432  0.27363686  0.94570000    -0.11100
C1710       C  0.90462651  0.25123339  0.93858740     0.08300
C1711       C  0.92125085  0.26591359  0.86102229     0.09300
S1712       S  0.87954843  0.32012147  0.87198725    -0.25400
H1713       H  0.86437054  0.31183610  0.93026623     0.19600
S1714       S  0.91455313  0.22343258  0.96349841    -0.31100
H1715       H  0.93085174  0.23244107  0.90571093     0.09900
C1716       C  0.94553225  0.28085435  0.85084335     0.03100
C1717       C  0.95848018  0.27234848  0.82498860    -0.13400
C1718       C  0.94795688  0.24886181  0.80954105    -0.09100
C1719       C  0.92287607  0.23486077  0.81912498     0.06500
C1720       C  0.90976728  0.24359383  0.84462880    -0.14100
S1721       S  0.96155345  0.30887390  0.87200453    -0.31100
H1722       H  0.97814593  0.28256109  0.81788323     0.10800
S1723       S  0.90770715  0.20449642  0.80083115    -0.28200
H1724       H  0.89114905  0.23201908  0.85248655     0.08000
H1725       H  0.91131079  0.24031992  0.98818323     0.26400
H1726       H  0.98402018  0.31541353  0.85288568     0.21200
H1727       H  0.91950566  0.21073816  0.77386378     0.26500
H1728       H  0.88424867  0.30401597  0.84705695     0.15400
C1729       C  0.27086440  0.60837313  0.16018812    -0.11900
C1730       C  0.24899110  0.60367854  0.14011752     0.14600
C1731       C  0.23242741  0.57830653  0.14216735     0.01500
C1732       C  0.23972970  0.55733374  0.16234564    -0.16300
C1733       C  0.26223702  0.56180841  0.18155523    -0.11100
C1734       C  0.27680287  0.58822730  0.18153354     0.08300
C1735       C  0.24527026  0.62449087  0.11624644     0.09300
S1736       S  0.20182304  0.57138522  0.11970782    -0.25400
H1737       H  0.22808491  0.53728280  0.16281136     0.19600
S1738       S  0.30288654  0.59754042  0.20836488    -0.31100
H1739       H  0.28352253  0.62777957  0.15914269     0.09900
C1740       C  0.23961955  0.65386955  0.12111815     0.03100
C1741       C  0.23627005  0.67244499  0.09769900    -0.13400
C1742       C  0.23748658  0.66215894  0.06955430    -0.09100
C1743       C  0.24383116  0.63298697  0.06468885     0.06500
C1744       C  0.24789285  0.61459341  0.08798705    -0.14100
S1745       S  0.23448284  0.66745053  0.15695541    -0.31100
H1746       H  0.23102940  0.69478767  0.10127340     0.10800
S1747       S  0.24720866  0.61803469  0.02927822    -0.28200
H1748       H  0.25293763  0.59225181  0.08405858     0.08000
H1749       H  0.29232478  0.57938485  0.22997397     0.26400
H1750       H  0.22956809  0.69622235  0.14936097     0.21200
H1751       H  0.25668906  0.64337283  0.01598186     0.26500
H1752       H  0.19410699  0.60031617  0.11597222     0.15400
C1753       C  0.27496202  0.61354714  0.85540093    -0.11900
C1754       C  0.25565272  0.60723234  0.87760753     0.14600
C1755       C  0.24230855  0.58007281  0.87838168     0.01500
C1756       C  0.24876839  0.55978275  0.85724312    -0.16300
C1757       C  0.26898591  0.56565522  0.83573303    -0.11100
C1758       C  0.28166344  0.59315406  0.83441735     0.08300
C1759       C  0.24913430  0.62951746  0.89927684     0.09300
S1760       S  0.21765630  0.56968876  0.90635693    -0.25400
H1761       H  0.23907792  0.53872111  0.85848939     0.19600
S1762       S  0.30596187  0.60378219  0.80615748    -0.31100
H1763       H  0.28482147  0.63456051  0.85439560     0.09900
C1764       C  0.26812545  0.63536429  0.92191835     0.03100
C1765       C  0.25988845  0.65479266  0.94339221    -0.13400
C1766       C  0.23308928  0.66872796  0.94258286    -0.09100
C1767       C  0.21499900  0.66418563  0.91867286     0.06500
C1768       C  0.22299967  0.64433081  0.89767817    -0.14100
S1769       S  0.30211998  0.61681644  0.92433044    -0.31100
H1770       H  0.27389202  0.65821242  0.96150778     0.10800
S1771       S  0.18178324  0.68339203  0.91316614    -0.28200
H1772       H  0.20869248  0.64033294  0.87987669     0.08000
H1773       H  0.29587594  0.58441599  0.78550057     0.26400
H1774       H  0.31266705  0.63207548  0.94797450     0.21200
H1775       H  0.19181237  0.70941410  0.92451536     0.26500
H1776       H  0.23079644  0.58548210  0.92826014     0.15400
C1777       C  0.05846287  0.75090908  0.86963963    -0.11900
C1778       C  0.08672855  0.74204394  0.86489899     0.14600
C1779       C  0.09684869  0.73920481  0.83644376     0.01500
C1780       C  0.07891090  0.74714898  0.81352436    -0.16300
C1781       C  0.05088366  0.75740078  0.81848336    -0.11100
C1782       C  0.04051160  0.75823492  0.84706356     0.08300
C1783       C  0.10495417  0.73825902  0.89060748     0.09300
S1784       S  0.13240718  0.72615901  0.82811940    -0.25400
H1785       H  0.08713412  0.74608590  0.79188160     0.19600
S1786       S  0.00424798  0.76776214  0.85649749    -0.31100
H1787       H  0.05039486  0.75262256  0.89133527     0.09900
C1788       C  0.12564771  0.75886874  0.89806859     0.03100
C1789       C  0.13905234  0.75724617  0.92480982    -0.13400
C1790       C  0.13187655  0.73581470  0.94485001    -0.09100
C1791       C  0.11078744  0.71533232  0.93729730     0.06500
C1792       C  0.09795606  0.71658729  0.91025939    -0.14100
S1793       S  0.13377737  0.78837288  0.87432656    -0.31100
H1794       H  0.15519296  0.77298906  0.93013548     0.10800
S1795       S  0.09794095  0.68808799  0.96145767    -0.28200
H1796       H  0.08136034  0.70127394  0.90492676     0.08000
H1797       H  0.99353180  0.75308741  0.83289633     0.26400
H1798       H  0.15655462  0.79983644  0.89030163     0.21200
H1799       H  0.09570040  0.70680833  0.98494695     0.26500
H1800       H  0.13632389  0.71058026  0.85355839     0.15400
C1801       C  0.10259053  0.76754905  0.17667697    -0.11900
C1802       C  0.09229946  0.74397577  0.16117236     0.14600
C1803       C  0.06800359  0.72897656  0.17134435     0.01500
C1804       C  0.05381615  0.73870403  0.19593479    -0.16300
C1805       C  0.06271673  0.76362285  0.21018477    -0.11100
C1806       C  0.08809408  0.77753143  0.20102609     0.08300
C1807       C  0.10539654  0.73777956  0.13297969     0.09300
S1808       S  0.05272403  0.69840661  0.15328975    -0.25400
H1809       H  0.03434152  0.72797393  0.20265582     0.19600
S1810       S  0.10267768  0.80842615  0.21898714    -0.31100
H1811       H  0.12136215  0.77889107  0.16909731     0.09900
C1812       C  0.09792770  0.75428007  0.10892496     0.03100
C1813       C  0.11123116  0.74876336  0.08258626    -0.13400
C1814       C  0.13169405  0.72671144  0.07944405    -0.09100
C1815       C  0.13777766  0.70906398  0.10347080     0.06500
C1816       C  0.12498861  0.71515254  0.12998710    -0.14100
S1817       S  0.07135490  0.78246240  0.11188487    -0.31100
H1818       H  0.10598534  0.76215500  0.06437565     0.10800
S1819       S  0.16229771  0.67920272  0.10228511    -0.28200
H1820       H  0.13028922  0.70211029  0.14846114     0.08000
H1821       H  0.09206355  0.80120466  0.24625802     0.26400
H1822       H  0.07188882  0.79095759  0.08303409     0.21200
H1823       H  0.14758318  0.66558953  0.07987867     0.26500
H1824       H  0.06431360  0.70313757  0.12596958     0.15400
C1825       C  0.25384795  0.82744655  0.91686479    -0.11900
C1826       C  0.25630999  0.85371316  0.93134913     0.14600
C1827       C  0.25308258  0.85433872  0.96131042     0.01500
C1828       C  0.24526347  0.82941131  0.97579239    -0.16300
C1829       C  0.24109199  0.80345234  0.96126013    -0.11100
C1830       C  0.24623506  0.80225183  0.93151989     0.08300
C1831       C  0.25793590  0.88070308  0.91474712     0.09300
S1832       S  0.25740932  0.88657741  0.98211094    -0.25400
H1833       H  0.24182726  0.83040291  0.99877772     0.19600
S1834       S  0.24140306  0.76999035  0.91093987    -0.31100
H1835       H  0.25629420  0.82691153  0.89376178     0.09900
C1836       C  0.28384026  0.89075759  0.90286067     0.03100
C1837       C  0.28415464  0.91722321  0.88846371    -0.13400
C1838       C  0.25900546  0.93383916  0.88571858    -0.09100
C1839       C  0.23321966  0.92379388  0.89829092     0.06500
C1840       C  0.23293848  0.89731140  0.91228523    -0.14100
S1841       S  0.31647374  0.87011878  0.90651414    -0.31100
H1842       H  0.30391667  0.92472134  0.87880320     0.10800
S1843       S  0.20022617  0.94413009  0.89839560    -0.28200
H1844       H  0.21313104  0.88979079  0.92192737     0.08000
H1845       H  0.21760994  0.75988399  0.92654648     0.26400
H1846       H  0.33460699  0.88950824  0.89217727     0.21200
H1847       H  0.21366525  0.97077324  0.90260566     0.26500
H1848       H  0.27756839  0.89953219  0.96378877     0.15400
C1849       C  0.26390940  0.42240229  0.89002061    -0.11900
C1850       C  0.25122841  0.39719334  0.88004785     0.14600
C1851       C  0.24576830  0.39430394  0.85046409     0.01500
C1852       C  0.25370480  0.41647863  0.83161649    -0.16300
C1853       C  0.26657953  0.44182718  0.84161720    -0.11100
C1854       C  0.27123148  0.44473662  0.87146402     0.08300
C1855       C  0.24234853  0.37561355  0.90170995     0.09300
S1856       S  0.22916015  0.36290734  0.83530492    -0.25400
H1857       H  0.25003589  0.41375839  0.80891905     0.19600
S1858       S  0.28527915  0.47675037  0.88780650    -0.31100
H1859       H  0.26756824  0.42496902  0.91276940     0.09900
C1860       C  0.25878950  0.35096671  0.90776632     0.03100
C1861       C  0.25045227  0.33271444  0.93036503    -0.13400
C1862       C  0.22578289  0.33845452  0.94706624    -0.09100
C1863       C  0.20892991  0.36295029  0.93992937     0.06500
C1864       C  0.21770414  0.38125348  0.91790784    -0.14100
S1865       S  0.29078830  0.34328313  0.88720500    -0.31100
H1866       H  0.26348430  0.31410791  0.93524671     0.10800
S1867       S  0.17555618  0.37225542  0.95723255    -0.28200
H1868       H  0.20498467  0.40017127  0.91314359     0.08000
H1869       H  0.26894635  0.49554590  0.87081989     0.26400
H1870       H  0.29718787  0.31688747  0.90030498     0.21200
H1871       H  0.16302330  0.34560728  0.95099627     0.26500
H1872       H  0.21463471  0.35367446  0.86000357     0.15400
C1873       C  0.21453736  0.37968254  0.10320808    -0.11900
C1874       C  0.23864649  0.37280419  0.11960344     0.14600
C1875       C  0.25451643  0.34775798  0.11328553     0.01500
C1876       C  0.24650790  0.33065720  0.09005671    -0.16300
C1877       C  0.22259710  0.33775285  0.07324653    -0.11100
C1878       C  0.20657806  0.36277381  0.07994386     0.08300
C1879       C  0.24887013  0.39426122  0.14036324     0.09300
S1880       S  0.28544070  0.33691700  0.13376400    -0.25400
H1881       H  0.25877224  0.31144007  0.08534593     0.19600
S1882       S  0.17722881  0.37575174  0.05842378    -0.31100
H1883       H  0.20271691  0.39923833  0.10767404     0.09900
C1884       C  0.27098500  0.41337780  0.13286847     0.03100
C1885       C  0.27963887  0.43421070  0.15246267    -0.13400
C1886       C  0.26678490  0.43633191  0.17959425    -0.09100
C1887       C  0.24506831  0.41658398  0.18732693     0.06500
C1888       C  0.23593059  0.39614585  0.16741762    -0.14100
S1889       S  0.28753101  0.41193812  0.09789478    -0.31100
H1890       H  0.29614862  0.44938951  0.14634118     0.10800
S1891       S  0.22946964  0.41529036  0.22259607    -0.28200
H1892       H  0.21910854  0.38119620  0.17323172     0.08000
H1893       H  0.19056323  0.36918958  0.03218607     0.26400
H1894       H  0.31055741  0.43035972  0.10407422     0.21200
H1895       H  0.25574469  0.41992658  0.23657770     0.26500
H1896       H  0.27636626  0.34919835  0.15971156     0.15400
C1897       C  0.09775247  0.28748763  0.11591808    -0.11900
C1898       C  0.09229551  0.26042100  0.12782878     0.14600
C1899       C  0.09871508  0.23572789  0.11157982     0.01500
C1900       C  0.11311007  0.23848502  0.08544769    -0.16300
C1901       C  0.12027363  0.26547598  0.07408073    -0.11100
C1902       C  0.11119170  0.29037027  0.08905114     0.08300
C1903       C  0.07916340  0.25843299  0.15680657     0.09300
S1904       S  0.08871980  0.20006935  0.12275030    -0.25400
H1905       H  0.11869852  0.21919190  0.07380376     0.19600
S1906       S  0.11721648  0.32597412  0.07508318    -0.31100
H1907       H  0.09191524  0.30639293  0.12803047     0.09900
C1908       C  0.09334164  0.24481469  0.17982694     0.03100
C1909       C  0.07813288  0.23914557  0.20524845    -0.13400
C1910       C  0.04936962  0.24759410  0.20833306    -0.09100
C1911       C  0.03621424  0.26359361  0.18631872     0.06500
C1912       C  0.05111686  0.26871354  0.16079566    -0.14100
S1913       S  0.13046616  0.23386970  0.17655380    -0.31100
H1914       H  0.08806839  0.22671501  0.22207253     0.10800
S1915       S  0.99975013  0.27634384  0.18887854    -0.28200
H1916       H  0.04032684  0.27967462  0.14346405     0.08000
H1917       H  0.10004145  0.34073807  0.09505237     0.26400
H1918       H  0.13348866  0.22343302  0.20461383     0.21200
H1919       H  0.00026176  0.28028568  0.21865930     0.26500
H1920       H  0.06346480  0.20829349  0.13719309     0.15400
C1921       C  0.09290131  0.24980306  0.90850681    -0.11900
C1922       C  0.10777293  0.26069338  0.88471569     0.14600
C1923       C  0.13292129  0.27692819  0.88875510     0.01500
C1924       C  0.14284802  0.28152708  0.91650855    -0.16300
C1925       C  0.12866570  0.26957274  0.94025678    -0.11100
C1926       C  0.10317483  0.25391245  0.93627320     0.08300
C1927       C  0.09616542  0.25433960  0.85617433     0.09300
S1928       S  0.15385696  0.29153707  0.85964620    -0.25400
H1929       H  0.16262312  0.29331953  0.91947933     0.19600
S1930       S  0.08329005  0.23975980  0.96637749    -0.31100
H1931       H  0.07339620  0.23770407  0.90513513     0.09900
C1932       C  0.09753386  0.22640923  0.84510116     0.03100
C1933       C  0.08209535  0.21982640  0.82045696    -0.13400
C1934       C  0.06466725  0.24043715  0.80682787    -0.09100
C1935       C  0.06535438  0.26917524  0.81671112     0.06500
C1936       C  0.08116503  0.27571334  0.84136539    -0.14100
S1937       S  0.11791196  0.19878223  0.86315116    -0.31100
H1938       H  0.08239419  0.19797023  0.81273090     0.10800
S1939       S  0.04496351  0.29743654  0.79970517    -0.28200
H1940       H  0.08071465  0.29718816  0.85007556     0.08000
H1941       H  0.06007415  0.22877520  0.95069854     0.26400
H1942       H  0.11354377  0.17700602  0.84286287     0.21200
H1943       H  0.05401211  0.32000305  0.81740237     0.26500
H1944       H  0.14528473  0.27192781  0.83860144     0.15400
C1945       C  0.22549384  0.16358662  0.91684267    -0.11900
C1946       C  0.24883478  0.14798266  0.92783015     0.14600
C1947       C  0.26496288  0.15977837  0.95042437     0.01500
C1948       C  0.25675931  0.18614081  0.96223918    -0.16300
C1949       C  0.23220648  0.20081665  0.95261147    -0.11100
C1950       C  0.21708279  0.18981910  0.92885940     0.08300
C1951       C  0.25543971  0.11934793  0.91554925     0.09300
S1952       S  0.29503906  0.14142755  0.96640892    -0.25400
H1953       H  0.26843438  0.19413065  0.98055448     0.19600
S1954       S  0.18691339  0.20813597  0.91293717    -0.31100
H1955       H  0.21346488  0.15500128  0.89904104     0.09900
C1956       C  0.23626748  0.09627145  0.91888479     0.03100
C1957       C  0.24229918  0.07006793  0.90552677    -0.13400
C1958       C  0.26733326  0.06599104  0.88896531    -0.09100
C1959       C  0.28758929  0.08868203  0.88756699     0.06500
C1960       C  0.28111501  0.11512846  0.90033311    -0.14100
S1961       S  0.20402057  0.10010676  0.94022385    -0.31100
H1962       H  0.22684080  0.05284724  0.90741574     0.10800
S1963       S  0.32170154  0.08588370  0.86945934    -0.28200
H1964       H  0.29621185  0.13268903  0.89830442     0.08000
H1965       H  0.19646152  0.23591653  0.91963856     0.26400
H1966       H  0.19447390  0.07164484  0.93768361     0.21200
H1967       H  0.32928557  0.06021582  0.88340328     0.26500
H1968       H  0.28386365  0.11364587  0.96326740     0.15400
C1969       C  0.65938498  0.89615087  0.26210560    -0.11900
C1970       C  0.63413757  0.89172331  0.24635956     0.14600
C1971       C  0.62822374  0.90978521  0.22282383     0.01500
C1972       C  0.64768806  0.93133601  0.21534856    -0.16300
C1973       C  0.67248786  0.93641962  0.23155632    -0.11100
C1974       C  0.67861527  0.91828616  0.25500495     0.08300
C1975       C  0.61312429  0.87004628  0.25660757     0.09300
S1976       S  0.59552564  0.90761072  0.20235115    -0.25400
H1977       H  0.64272171  0.94515283  0.19739451     0.19600
S1978       S  0.71119417  0.92249172  0.27543076    -0.31100
H1979       H  0.66373635  0.88242179  0.28026131     0.09900
C1980       C  0.60519090  0.84598359  0.24021336     0.03100
C1981       C  0.58267815  0.82826568  0.24976325    -0.13400
C1982       C  0.56824597  0.83372316  0.27570682    -0.09100
C1983       C  0.57719068  0.85740091  0.29249975     0.06500
C1984       C  0.59950346  0.87494101  0.28286645    -0.14100
S1985       S  0.62426458  0.83736398  0.20763326    -0.31100
H1986       H  0.57653824  0.80984793  0.23713325     0.10800
S1987       S  0.56035470  0.86770626  0.32572119    -0.28200
H1988       H  0.60558073  0.89342223  0.29551373     0.08000
H1989       H  0.70800396  0.89779311  0.29241346     0.26400
H1990       H  0.60595476  0.81515492  0.19880739     0.21200
H1991       H  0.53226277  0.86544107  0.31507332     0.26500
H1992       H  0.57763634  0.89992994  0.22538226     0.15400
C1993       C  0.59907490  0.14926354  0.24071544    -0.11900
C1994       C  0.60424217  0.12535532  0.25807160     0.14600
C1995       C  0.58679154  0.12055244  0.28227023     0.01500
C1996       C  0.56464004  0.13976037  0.28860702    -0.16300
C1997       C  0.55928703  0.16399787  0.27141550    -0.11100
C1998       C  0.57653956  0.16827833  0.24671215     0.08300
C1999       C  0.62601943  0.10423999  0.24888657     0.09300
S2000       S  0.59118064  0.08995185  0.30552414    -0.25400
H2001       H  0.55172032  0.13579136  0.30753866     0.19600
S2002       S  0.57013761  0.19630261  0.22098014    -0.31100
H2003       H  0.61202741  0.15246738  0.22162807     0.09900
C2004       C  0.61788634  0.07933011  0.23415666     0.03100
C2005       C  0.63870962  0.05874098  0.22738734    -0.13400
C2006       C  0.66779085  0.06281038  0.23440170    -0.09100
C2007       C  0.67610389  0.08888480  0.24741598     0.06500
C2008       C  0.65505541  0.10904229  0.25502880    -0.14100
S2009       S  0.58090844  0.07372070  0.22402789    -0.31100
H2010       H  0.63215627  0.03917815  0.21691882     0.10800
S2011       S  0.71308137  0.09845928  0.25342243    -0.28200
H2012       H  0.66132399  0.12869606  0.26557154     0.08000
H2013       H  0.54050016  0.19063279  0.21915779     0.26400
H2014       H  0.58613214  0.05057093  0.20545789     0.21200
H2015       H  0.72302341  0.08751313  0.22713001     0.26500
H2016       H  0.62083319  0.08631718  0.30111532     0.15400
C2017       C  0.74006404  0.16354348  0.07418534    -0.11900
C2018       C  0.75672043  0.15360478  0.09699151     0.14600
C2019       C  0.78205801  0.16843382  0.10432508     0.01500
C2020       C  0.79060764  0.19226719  0.08816292    -0.16300
C2021       C  0.77462640  0.20164486  0.06446650    -0.11100
C2022       C  0.74892504  0.18688536  0.05755324     0.08300
C2023       C  0.74959680  0.12538541  0.10966657     0.09300
S2024       S  0.80522334  0.15714627  0.13308832    -0.25400
H2025       H  0.81036020  0.20312648  0.09373392     0.19600
S2026       S  0.72823780  0.19422040  0.02589856    -0.31100
H2027       H  0.72102204  0.15175659  0.06806362     0.09900
C2028       C  0.72783231  0.12200802  0.13040267     0.03100
C2029       C  0.72321360  0.09485712  0.14264283    -0.13400
C2030       C  0.73969772  0.07095300  0.13421445    -0.09100
C2031       C  0.76005882  0.07423789  0.11191765     0.06500
C2032       C  0.76506129  0.10137389  0.10030692    -0.14100
S2033       S  0.70705136  0.15249997  0.14226394    -0.31100
H2034       H  0.70761299  0.09253148  0.15976440     0.10800
S2035       S  0.77995103  0.04464864  0.09686477    -0.28200
H2036       H  0.78119882  0.10384186  0.08364969     0.08000
H2037       H  0.75238773  0.19287328  0.00779735     0.26400
H2038       H  0.68807594  0.13715844  0.16004117     0.21200
H2039       H  0.75742728  0.02478099  0.09985862     0.26500
H2040       H  0.78413657  0.14276959  0.14913212     0.15400
C2041       C  0.77473058  0.83926115  0.10232179    -0.11900
C2042       C  0.75706943  0.85891873  0.08793600     0.14600
C2043       C  0.74496406  0.85122479  0.06141258     0.01500
C2044       C  0.75052402  0.82401009  0.05012155    -0.16300
C2045       C  0.76916947  0.80480834  0.06395332    -0.11100
C2046       C  0.78099985  0.81239936  0.09060569     0.08300
C2047       C  0.75254583  0.88743593  0.10100171     0.09300
S2048       S  0.72402193  0.87573493  0.04005392    -0.25400
H2049       H  0.74207564  0.81869568  0.02919562     0.19600
S2050       S  0.80459702  0.78894531  0.11036173    -0.31100
H2051       H  0.78406433  0.84511314  0.12273331     0.09900
C2052       C  0.72618895  0.89526734  0.11373002     0.03100
C2053       C  0.72387516  0.92171204  0.12787423    -0.13400
C2054       C  0.74756206  0.94022611  0.12990757    -0.09100
C2055       C  0.77357400  0.93269579  0.11609432     0.06500
C2056       C  0.77583311  0.90635912  0.10207263    -0.14100
S2057       S  0.69614175  0.87084425  0.11354711    -0.31100
H2058       H  0.70402367  0.92734206  0.13861931     0.10800
S2059       S  0.80460346  0.95573870  0.11536289    -0.28200
H2060       H  0.79599967  0.90043130  0.09203258     0.08000
H2061       H  0.79330918  0.76321970  0.09953138     0.26400
H2062       H  0.67772598  0.88748521  0.13076486     0.21200
H2063       H  0.78879995  0.98143969  0.11486599     0.26500
H2064       H  0.73817839  0.90076785  0.04887279     0.15400
C2065       C  0.90292348  0.90483396  0.23788983    -0.11900
C2066       C  0.88414444  0.90457144  0.26141334     0.14600
C2067       C  0.89275066  0.89132948  0.28714674     0.01500
C2068       C  0.91982128  0.87844663  0.28865985    -0.16300
C2069       C  0.93811421  0.87769255  0.26475272    -0.11100
C2070       C  0.92987190  0.89173313  0.23934234     0.08300
C2071       C  0.85596652  0.91865873  0.25819591     0.09300
S2072       S  0.86993454  0.88907523  0.31834746    -0.25400
H2073       H  0.92596320  0.86748677  0.30814911     0.19600
S2074       S  0.95292573  0.89416663  0.20835816    -0.31100
H2075       H  0.89654859  0.91546890  0.21830595     0.09900
C2076       C  0.84993177  0.94512629  0.27139412     0.03100
C2077       C  0.82388818  0.95895879  0.26553560    -0.13400
C2078       C  0.80443720  0.94737721  0.24591283    -0.09100
C2079       C  0.81037553  0.92078903  0.23288991     0.06500
C2080       C  0.83595246  0.90652312  0.23944143    -0.14100
S2081       S  0.87650464  0.96262982  0.29331144    -0.31100
H2082       H  0.81959835  0.97993940  0.27451328     0.10800
S2083       S  0.78757372  0.90535508  0.20584943    -0.28200
H2084       H  0.84089793  0.88642758  0.22893447     0.08000
H2085       H  0.97880217  0.89418947  0.22376912     0.26400
H2086       H  0.86170147  0.98873149  0.29642019     0.21200
H2087       H  0.76224578  0.91997365  0.21348577     0.26500
H2088       H  0.84361756  0.88984567  0.30375896     0.15400
C2089       C  0.88678201  0.12275150  0.28567387    -0.11900
C2090       C  0.88660730  0.09693044  0.27048931     0.14600
C2091       C  0.91283716  0.08555926  0.26003395     0.01500
C2092       C  0.93835121  0.10100999  0.26391380    -0.16300
C2093       C  0.93836180  0.12742008  0.27823939    -0.11100
C2094       C  0.91215765  0.13823399  0.28938542     0.08300
C2095       C  0.85839274  0.08469898  0.26271740     0.09300
S2096       S  0.91536980  0.05224104  0.24051600    -0.25400
H2097       H  0.95826921  0.09258339  0.25532258     0.19600
S2098       S  0.90894173  0.17290293  0.30610464    -0.31100
H2099       H  0.86667193  0.13171129  0.29331909     0.09900
C2100       C  0.84458992  0.06397708  0.27974420     0.03100
C2101       C  0.81872217  0.05185401  0.27026905    -0.13400
C2102       C  0.80625444  0.06029296  0.24416888    -0.09100
C2103       C  0.81905154  0.08285429  0.22841449     0.06500
C2104       C  0.84507201  0.09458470  0.23777894    -0.14100
S2105       S  0.86075753  0.05203451  0.31270330    -0.31100
H2106       H  0.80905208  0.03462619  0.28248553     0.10800
S2107       S  0.80233312  0.09714523  0.19656329    -0.28200
H2108       H  0.85544124  0.11133163  0.22543353     0.08000
H2109       H  0.92714320  0.18700945  0.28660255     0.26400
H2110       H  0.83815001  0.03398551  0.32130990     0.21200
H2111       H  0.82352862  0.11758442  0.19003226     0.26500
H2112       H  0.88807735  0.04127568  0.24691562     0.15400
C2113       C  0.42979781  0.88543278  0.25722580    -0.11900
C2114       C  0.40231358  0.87562046  0.25015756     0.14600
C2115       C  0.39678068  0.84583752  0.25041245     0.01500
C2116       C  0.41849767  0.82672334  0.25882573    -0.16300
C2117       C  0.44586825  0.83662930  0.26651329    -0.11100
C2118       C  0.45162682  0.86637083  0.26505865     0.08300
C2119       C  0.38028257  0.89718930  0.24220719     0.09300
S2120       S  0.36250217  0.83092104  0.24058735    -0.25400
H2121       H  0.41385965  0.80400351  0.25981377     0.19600
S2122       S  0.48656939  0.88138944  0.27200411    -0.31100
H2123       H  0.43431553  0.90819810  0.25646199     0.09900
C2124       C  0.35793627  0.90516776  0.26099049     0.03100
C2125       C  0.33819436  0.92645028  0.25266258    -0.13400
C2126       C  0.34053265  0.94039610  0.22603215    -0.09100
C2127       C  0.36323558  0.93206775  0.20731760     0.06500
C2128       C  0.38276315  0.91089435  0.21573397    -0.14100
S2129       S  0.35526758  0.88899723  0.29598579    -0.31100
H2130       H  0.32116448  0.93264284  0.26727459     0.10800
S2131       S  0.36851626  0.94676612  0.17209073    -0.28200
H2132       H  0.40005840  0.90479965  0.20132660     0.08000
H2133       H  0.50209618  0.85839061  0.26008628     0.26400
H2134       H  0.33250688  0.90614434  0.30609232     0.21200
H2135       H  0.34045069  0.94025464  0.16355522     0.26500
H2136       H  0.35467335  0.85268439  0.22131456     0.15400
C2137       C  0.41163450  0.13986049  0.23703134    -0.11900
C2138       C  0.38866004  0.13422911  0.25569732     0.14600
C2139       C  0.38817276  0.14739701  0.28282152     0.01500
C2140       C  0.41098747  0.16499336  0.29105045    -0.16300
C2141       C  0.43454234  0.17002576  0.27277144    -0.11100
C2142       C  0.43462343  0.15725867  0.24528852     0.08300
C2143       C  0.36768443  0.11176353  0.24767983     0.09300
S2144       S  0.35923460  0.14223702  0.30804282    -0.25400
H2145       H  0.41030284  0.17474528  0.31194383     0.19600
S2146       S  0.46429172  0.16012036  0.22057898    -0.31100
H2147       H  0.41241071  0.12935577  0.21643177     0.09900
C2148       C  0.34957531  0.11468941  0.22376282     0.03100
C2149       C  0.33197027  0.09171665  0.21577417    -0.13400
C2150       C  0.33214258  0.06575477  0.23107975    -0.09100
C2151       C  0.35016963  0.06303181  0.25519585     0.06500
C2152       C  0.36742708  0.08609323  0.26334282    -0.14100
S2153       S  0.34853285  0.14774339  0.20363325    -0.31100
H2154       H  0.31802661  0.09391784  0.19740814     0.10800
S2155       S  0.35386768  0.03017600  0.27518599    -0.28200
H2156       H  0.38171677  0.08361470  0.28143767     0.08000
H2157       H  0.48532463  0.15423790  0.24133819     0.26400
H2158       H  0.32917029  0.13849883  0.18255793     0.21200
H2159       H  0.35442378  0.01236472  0.25093114     0.26500
H2160       H  0.33774332  0.13766453  0.28751954     0.15400
C2161       C  0.27292546  0.83252742  0.08613600    -0.11900
C2162       C  0.25189752  0.84998615  0.09875548     0.14600
C2163       C  0.22328517  0.84028429  0.10001441     0.01500
C2164       C  0.21586360  0.81473811  0.08643729    -0.16300
C2165       C  0.23641115  0.79802329  0.07179492    -0.11100
C2166       C  0.26572010  0.80642098  0.07308606     0.08300
C2167       C  0.25980101  0.87913666  0.10840802     0.09300
S2168       S  0.19502076  0.86009092  0.11772426    -0.25400
H2169       H  0.19341856  0.80850803  0.08648597     0.19600
S2170       S  0.29431253  0.78505359  0.05767835    -0.31100
H2171       H  0.29497699  0.83999033  0.08563100     0.09900
C2172       C  0.27773351  0.88356074  0.13215736     0.03100
C2173       C  0.28308017  0.91160216  0.14139075    -0.13400
C2174       C  0.27067177  0.93537566  0.12758234    -0.09100
C2175       C  0.25354665  0.93084453  0.10316392     0.06500
C2176       C  0.24832282  0.90285995  0.09387623    -0.14100
S2177       S  0.29197788  0.85353038  0.15204738    -0.31100
H2178       H  0.29557657  0.91491095  0.16060138     0.10800
S2179       S  0.23785413  0.95978312  0.08300261    -0.28200
H2180       H  0.23483004  0.89946531  0.07531401     0.08000
H2181       H  0.31736472  0.80028144  0.06964625     0.26400
H2182       H  0.30638408  0.86958229  0.17299240     0.21200
H2183       H  0.26109806  0.97847364  0.08723681     0.26500
H2184       H  0.21265536  0.87299689  0.13835466     0.15400
C2185       C  0.22495794  0.16669404  0.10175154    -0.11900
C2186       C  0.25276186  0.15586089  0.09768869     0.14600
C2187       C  0.27203012  0.17060399  0.07951348     0.01500
C2188       C  0.26251981  0.19495916  0.06465648    -0.16300
C2189       C  0.23419881  0.20490270  0.06773673    -0.11100
C2190       C  0.21561551  0.19109681  0.08725636     0.08300
C2191       C  0.25951637  0.12767152  0.11053516     0.09300
S2192       S  0.30841522  0.15866434  0.07348809    -0.25400
H2193       H  0.27680715  0.20526279  0.04945044     0.19600
S2194       S  0.17944456  0.20314782  0.09400351    -0.31100
H2195       H  0.21008926  0.15549356  0.11572571     0.09900
C2196       C  0.26042858  0.12397241  0.14042551     0.03100
C2197       C  0.26210810  0.09622687  0.15178465    -0.13400
C2198       C  0.26303019  0.07218948  0.13381595    -0.09100
C2199       C  0.26303606  0.07592051  0.10394806     0.06500
C2200       C  0.26148009  0.10363973  0.09257273    -0.14100
S2201       S  0.25923742  0.15454151  0.16407345    -0.31100
H2202       H  0.26238836  0.09314208  0.17470805     0.10800
S2203       S  0.26317348  0.04612756  0.07950768    -0.28200
H2204       H  0.26037528  0.10643406  0.06961810     0.08000
H2205       H  0.18549560  0.23235603  0.08962323     0.26400
H2206       H  0.26458643  0.13935534  0.18951751     0.21200
H2207       H  0.24576410  0.02845214  0.09666122     0.26500
H2208       H  0.31174551  0.14494475  0.10005455     0.15400
C2209       C  0.09879265  0.90858423  0.24253262    -0.11900
C2210       C  0.12405488  0.89508525  0.25191853     0.14600
C2211       C  0.12203491  0.87120740  0.27040941     0.01500
C2212       C  0.09497947  0.86092281  0.27834236    -0.16300
C2213       C  0.06976430  0.87354071  0.26779342    -0.11100
C2214       C  0.07173912  0.89813730  0.25030811     0.08300
C2215       C  0.15206235  0.90728296  0.24310238     0.09300
S2216       S  0.15301901  0.85199797  0.28346071    -0.25400
H2217       H  0.09368621  0.84167928  0.29129759     0.19600
S2218       S  0.04058279  0.91729358  0.23761006    -0.31100
H2219       H  0.10020231  0.92746456  0.22905501     0.09900
C2220       C  0.16065691  0.90818763  0.21420486     0.03100
C2221       C  0.18604354  0.92249996  0.20668605    -0.13400
C2222       C  0.20349369  0.93550136  0.22753121    -0.09100
C2223       C  0.19615507  0.93163873  0.25676985     0.06500
C2224       C  0.17016341  0.91857507  0.26404987    -0.14100
S2225       S  0.13923483  0.89131884  0.18684834    -0.31100
H2226       H  0.19161143  0.92452963  0.18428327     0.10800
S2227       S  0.21837707  0.94312433  0.28602369    -0.28200
H2228       H  0.16391362  0.91721266  0.28638100     0.08000
H2229       H  0.02285355  0.91031629  0.26103224     0.26400
H2230       H  0.15868066  0.89551935  0.16414810     0.21200
H2231       H  0.24398284  0.93311189  0.27334774     0.26500
H2232       H  0.17047812  0.85695291  0.25937379     0.15400
C2233       C  0.11235109  0.10473466  0.28513768    -0.11900
C2234       C  0.12683992  0.10621701  0.25886550     0.14600
C2235       C  0.11549789  0.12360076  0.23690743     0.01500
C2236       C  0.08961978  0.13829473  0.24140980    -0.16300
C2237       C  0.07427047  0.13609060  0.26736214    -0.11100
C2238       C  0.08675867  0.11991612  0.28991246     0.08300
C2239       C  0.15212588  0.08737528  0.25421988     0.09300
S2240       S  0.13252945  0.12756371  0.20239053    -0.25400
H2241       H  0.08116577  0.15113441  0.22404535     0.19600
S2242       S  0.07196733  0.11809776  0.32549081    -0.31100
H2243       H  0.12117418  0.09166887  0.30214338     0.09900
C2244       C  0.18045085  0.09795449  0.25209699     0.03100
C2245       C  0.20305339  0.07903785  0.24510757    -0.13400
C2246       C  0.19771564  0.04983903  0.24027990    -0.09100
C2247       C  0.16951944  0.03922303  0.24413611     0.06500
C2248       C  0.14715003  0.05802829  0.25081451    -0.14100
S2249       S  0.18765724  0.13547451  0.25790993    -0.31100
H2250       H  0.22465724  0.08715278  0.24222924     0.10800
S2251       S  0.16073809  0.00177996  0.24097950    -0.28200
H2252       H  0.12548297  0.04976348  0.25292927     0.08000
H2253       H  0.07139815  0.14807660  0.32864603     0.26400
H2254       H  0.21679021  0.13462730  0.24982308     0.21200
H2255       H  0.18655278  0.99254771  0.25343418     0.26500
H2256       H  0.14433322  0.09985904  0.20097725     0.15400
loop_ 
_geom_bond_atom_site_label_1 
_geom_bond_atom_site_label_2 
_geom_bond_distance 
_geom_bond_site_symmetry_2 
_ccdc_geom_bond_type 
O1           C16   1.264       .  A
O1           Al9   1.922   1_545  S
C2           O12   1.257       .  A
C2            O3   1.263       .  A
C2         C2174   1.478       .  S
O3           Al5   1.924       .  S
O4            C6   1.263       .  A
O4           Al5   1.891       .  S
Al5          O13   1.884   1_565  S
Al5          O15   1.904   1_565  S
Al5          O14   1.777   1_565  S
C6           O19   1.267       .  A
C6         C2222   1.491       .  S
O7           C17   1.264       .  A
O7           Al9   1.915       .  S
O8           C21   1.260       .  A
O8          Al18   1.882       .  S
Al9          O22   1.933   1_565  S
Al9          O19   1.928       .  S
Al9          O14   1.772   1_565  S
O10          C17   1.261       .  A
O10         Al18   1.914   1_565  S
O11          C20   1.264       .  A
O11         Al18   1.930       .  S
O12         Al18   1.886   1_565  S
O13          C20   1.258       .  A
O14         Al18   1.779       .  S
O15          C16   1.260       .  A
C16        C2246   1.478       .  S
C17        C2126   1.494       .  S
C20        C2198   1.466       .  S
C21          O22   1.268       .  A
C21        C2150   1.479       .  S
O23          C38   1.261       .  A
O23         Al31   1.901   1_565  S
C24          O34   1.260       .  A
C24          O25   1.262       .  A
C24        C2030   1.482       .  S
O25         Al27   1.910       .  S
O26          C28   1.258       .  A
O26         Al27   1.883       .  S
Al27         O35   1.882   1_545  S
Al27         O37   1.890   1_545  S
Al27         O36   1.777       .  S
C28          O41   1.265       .  A
C28        C2102   1.486       .  S
O29          C39   1.262       .  A
O29         Al31   1.905       .  S
O30          C43   1.260       .  A
O30         Al40   1.887   1_565  S
Al31         O44   1.936   1_545  S
Al31         O41   1.932       .  S
Al31         O36   1.788       .  S
O32          C39   1.261       .  A
O32         Al40   1.901       .  S
O33          C42   1.262       .  A
O33         Al40   1.921   1_565  S
O34         Al40   1.899       .  S
O35          C42   1.256       .  A
O36         Al40   1.786       .  S
O37          C38   1.258       .  A
C38        C2078   1.458       .  S
C39        C2006   1.482       .  S
C42        C2054   1.477       .  S
C43          O44   1.267       .  A
C43        C1973   1.484       .  S
O45          C60   1.264       .  A
O45         Al53   1.909       .  S
C46          O56   1.256       .  A
C46          O47   1.263       .  A
C46        C1925   1.469       .  S
O47         Al49   1.918   1_556  S
O48          C50   1.259       .  A
O48         Al49   1.888   1_556  S
Al49         O57   1.884       .  S
Al49         O59   1.899       .  S
Al49         O58   1.777       .  S
C50          O63   1.266       .  A
C50        C1949   1.483       .  S
O51          C61   1.264       .  A
O51         Al53   1.922   1_556  S
O52          C65   1.258       .  A
O52         Al62   1.874       .  S
Al53         O66   1.947       .  S
Al53         O63   1.930   1_554  S
Al53         O58   1.782       .  S
O54          C61   1.260       .  A
O54         Al62   1.916   1_556  S
O55          C64   1.263       .  A
O55         Al62   1.932       .  S
O56         Al62   1.876   1_556  S
O57          C64   1.257       .  A
O58         Al62   1.780       .  S
O59          C60   1.261       .  A
C60        C2189   1.471       .  S
C61        C1862   1.501       .  S
C64        C1901   1.493       .  S
C65          O66   1.271       .  A
C65        C1877   1.479       .  S
O67          C82   1.263       .  A
O67         Al75   1.917   1_556  S
C68          O78   1.257       .  A
C68          O69   1.262       .  A
C68        C1814   1.491       .  S
O69         Al71   1.917       .  S
O70          C72   1.264       .  A
O70         Al71   1.893       .  S
Al71         O79   1.883   1_554  S
Al71         O81   1.899   1_554  S
Al71         O80   1.777       .  S
C72          O85   1.266       .  A
C72        C2165   1.493       .  S
O73          C83   1.260       .  A
O73         Al75   1.903       .  S
O74          C87   1.258       .  A
O74         Al84   1.880   1_556  S
Al75         O88   1.937   1_554  S
Al75         O85   1.931       .  S
Al75         O80   1.779       .  S
O76          C83   1.262       .  A
O76         Al84   1.915       .  S
O77          C86   1.266       .  A
O77         Al84   1.930   1_556  S
O78         Al84   1.900       .  S
O79          C86   1.260       .  A
O80         Al84   1.781       .  S
O81          C82   1.260       .  A
C82        C1829   1.474       .  S
C83        C1742   1.474       .  S
C86        C1790   1.491       .  S
C87          O88   1.268       .  A
C87        C1766   1.486       .  S
O89         C104   1.261       .  A
O89         Al97   1.909   1_655  S
C90         O100   1.256       .  A
C90          O91   1.264       .  A
C90        C1685   1.471       .  S
O91         Al93   1.923       .  S
O92          C94   1.258       .  A
O92         Al93   1.867       .  S
Al93        O101   1.870   1_455  S
Al93        O103   1.902   1_455  S
Al93        O102   1.774       .  S
C94         O107   1.266       .  A
C94        C1934   1.487       .  S
O95         C105   1.261       .  A
O95         Al97   1.904       .  S
O96         C109   1.259       .  A
O96        Al106   1.867   1_655  S
Al97        O110   1.937   1_455  S
Al97        O107   1.933       .  S
Al97        O102   1.783       .  S
O98         C105   1.258       .  A
O98        Al106   1.900       .  S
O99         C108   1.262       .  A
O99        Al106   1.928   1_655  S
O100       Al106   1.880       .  S
O101        C108   1.256       .  A
O102       Al106   1.783       .  S
O103        C104   1.259       .  A
C104       C1718   1.471       .  S
C105       C1637   1.483       .  S
C108       C1670   1.488       .  S
C109        O110   1.270       .  A
C109       C1622   1.473       .  S
O111        C126   1.264       .  A
O111       Al119   1.919   1_455  S
C112        O122   1.256       .  A
C112        O113   1.264       .  A
C112       C2093   1.479       .  S
O113       Al115   1.933       .  S
O114        C116   1.263       .  A
O114       Al115   1.895       .  S
Al115       O123   1.895   1_655  S
Al115       O125   1.907   1_655  S
Al115       O124   1.777   1_655  S
C116        O129   1.268       .  A
C116       C1589   1.496       .  S
O117        C127   1.264       .  A
O117       Al119   1.910       .  S
O118        C131   1.259       .  A
O118       Al128   1.877       .  S
Al119       O132   1.942   1_655  S
Al119       O129   1.938       .  S
Al119       O124   1.778   1_655  S
O120        C127   1.258       .  A
O120       Al128   1.905   1_655  S
O121        C130   1.264       .  A
O121       Al128   1.930       .  S
O122       Al128   1.886   1_655  S
O123        C130   1.261       .  A
O124       Al128   1.779       .  S
O125        C126   1.260       .  A
C126       C1910   1.472       .  S
C127       C1550   1.492       .  S
C130       C2237   1.496       .  S
C131        O132   1.269       .  A
C131       C1565   1.478       .  S
O133        C148   1.262       .  A
O133       Al141   1.910   1_655  S
C134        O144   1.259       .  A
C134        O135   1.261       .  A
C134       C2213   1.471       .  S
O135       Al137   1.910       .  S
O136        C138   1.259       .  A
O136       Al137   1.889       .  S
Al137       O145   1.879   1_455  S
Al137       O147   1.896   1_455  S
Al137       O146   1.784       .  S
C138        O151   1.265       .  A
C138       C1805   1.479       .  S
O139        C149   1.264       .  A
O139       Al141   1.918       .  S
O140        C153   1.262       .  A
O140       Al150   1.894   1_655  S
Al141       O154   1.936   1_455  S
Al141       O151   1.925       .  S
Al141       O146   1.782       .  S
O142        C149   1.258       .  A
O142       Al150   1.903       .  S
O143        C152   1.261       .  A
O143       Al150   1.912   1_655  S
O144       Al150   1.894       .  S
O145        C152   1.257       .  A
O146       Al150   1.783       .  S
O147        C148   1.259       .  A
C148       C1526   1.467       .  S
C149       C1469   1.492       .  S
C152       C2069   1.467       .  S
C153        O154   1.268       .  A
C153       C1502   1.486       .  S
O155        C170   1.264       .  A
O155       Al163   1.926       .  S
C156        O166   1.263       .  A
C156        O157   1.256       .  A
C156       C1421   1.475       .  S
O157       Al159   1.874   1_556  S
O158        C160   1.261       .  A
O158       Al159   1.902   1_556  S
Al159       O167   1.915       .  S
Al159       O169   1.880       .  S
Al159       O168   1.784       .  S
C160        O173   1.261       .  A
C160       C1454   1.466       .  S
O161        C171   1.266       .  A
O161       Al163   1.940   1_556  S
O162        C175   1.259       .  A
O162       Al172   1.894       .  S
Al163       O176   1.913       .  S
Al163       O173   1.902   1_554  S
Al163       O168   1.791       .  S
O164        C171   1.258       .  A
O164       Al172   1.882   1_556  S
O165        C174   1.258       .  A
O165       Al172   1.895       .  S
O166       Al172   1.926   1_556  S
O167        C174   1.261       .  A
O168       Al172   1.783       .  S
O169        C170   1.258       .  A
C170       C2045   1.471       .  S
C171       C1382   1.490       .  S
C174       C1517   1.483       .  S
C175        O176   1.263       .  A
C175       C1397   1.479       .  S
O177        C192   1.263       .  A
O177       Al185   1.920   1_565  S
C178        O188   1.260       .  A
C178        O179   1.264       .  A
C178       C1958   1.494       .  S
O179       Al181   1.917       .  S
O180        C182   1.260       .  A
O180       Al181   1.889       .  S
Al181       O189   1.890   1_545  S
Al181       O191   1.891   1_545  S
Al181       O190   1.773       .  S
C182        O195   1.267       .  A
C182       C1694   1.490       .  S
O183        C193   1.259       .  A
O183       Al185   1.901       .  S
O184        C197   1.262       .  A
O184       Al194   1.881       .  S
Al185       O198   1.930   1_545  S
Al185       O195   1.921       .  S
Al185       O190   1.780       .  S
O186        C193   1.259       .  A
O186       Al194   1.910   1_545  S
O187        C196   1.265       .  A
O187       Al194   1.928       .  S
O188       Al194   1.904   1_545  S
O189        C196   1.259       .  A
O190       Al194   1.780   1_545  S
O191        C192   1.259       .  A
C192       C1358   1.478       .  S
C193       C1310   1.470       .  S
C196       C1838   1.483       .  S
C197        O198   1.266       .  A
C197       C1334   1.488       .  S
O199        C214   1.266       .  A
O199       Al207   1.935       .  S
C200        O210   1.257       .  A
C200        O201   1.261       .  A
C200       C1286   1.481       .  S
O201       Al203   1.919       .  S
O202        C204   1.262       .  A
O202       Al203   1.892       .  S
Al203       O211   1.887   1_655  S
Al203       O213   1.897   1_655  S
Al203       O212   1.778   1_655  S
C204        O217   1.266       .  A
C204       C1430   1.481       .  S
O205        C215   1.260       .  A
O205       Al207   1.908   1_655  S
O206        C219   1.257       .  A
O206       Al216   1.881       .  S
Al207       O220   1.925       .  S
Al207       O217   1.917   1_455  S
Al207       O212   1.785       .  S
O208        C215   1.262       .  A
O208       Al216   1.905   1_655  S
O209        C218   1.266       .  A
O209       Al216   1.934       .  S
O210       Al216   1.897   1_655  S
O211        C218   1.261       .  A
O212       Al216   1.781       .  S
O213        C214   1.259       .  A
C214       C1781   1.490       .  S
C215       C1229   1.496       .  S
C218       C1349   1.493       .  S
C219        O220   1.265       .  A
C219       C1253   1.470       .  S
O221        C236   1.268       .  A
O221       Al229   1.927   1_556  S
C222        O232   1.258       .  A
C222        O223   1.261       .  A
C222       C1598   1.478       .  S
O223       Al225   1.912       .  S
O224        C226   1.261       .  A
O224       Al225   1.900       .  S
Al225       O233   1.882   1_554  S
Al225       O235   1.898   1_554  S
Al225       O234   1.784       .  S
C226        O239   1.261       .  A
C226       C2021   1.488       .  S
O227        C237   1.265       .  A
O227       Al229   1.923       .  S
O228        C241   1.259       .  A
O228       Al238   1.888   1_556  S
Al229       O242   1.925   1_554  S
Al229       O239   1.915       .  S
Al229       O234   1.788       .  S
O230        C237   1.259       .  A
O230       Al238   1.894       .  S
O231        C240   1.261       .  A
O231       Al238   1.919   1_556  S
O232       Al238   1.898       .  S
O233        C240   1.256       .  A
O234       Al238   1.790       .  S
O235        C236   1.261       .  A
C236       C1205   1.485       .  S
C237       C1166   1.482       .  S
C240       C1709   1.478       .  S
C241        O242   1.265       .  A
C241       C1181   1.479       .  S
O243        C258   1.261       .  A
O243       Al251   1.916       .  S
C244        O254   1.255       .  A
C244        O245   1.261       .  A
C244       C1445   1.481       .  S
O245       Al247   1.917       .  S
O246        C248   1.261       .  A
O246       Al247   1.888       .  S
Al247       O255   1.877   1_565  S
Al247       O257   1.897   1_565  S
Al247       O256   1.780   1_565  S
C248        O261   1.270       .  A
C248       C1277   1.495       .  S
O249        C259   1.262       .  A
O249       Al251   1.904   1_565  S
O250        C263   1.256       .  A
O250       Al260   1.873       .  S
Al251       O264   1.930       .  S
Al251       O261   1.940   1_545  S
Al251       O256   1.782       .  S
O252        C259   1.263       .  A
O252       Al260   1.911   1_565  S
O253        C262   1.269       .  A
O253       Al260   1.947       .  S
O254       Al260   1.889   1_565  S
O255        C262   1.258       .  A
O256       Al260   1.783       .  S
O257        C258   1.258       .  A
C258       C1661   1.471       .  S
C259       C1118   1.484       .  S
C262       C1214   1.485       .  S
C263        O264   1.266       .  A
C263       C1133   1.487       .  S
O265        C280   1.260       .  A
O265       Al273   1.901       .  S
C266        O276   1.259       .  A
C266        O267   1.264       .  A
C266       C1013   1.487       .  S
O267       Al269   1.919       .  S
O268        C270   1.260       .  A
O268       Al269   1.889       .  S
Al269       O277   1.883       .  S
Al269       O279   1.901       .  S
Al269       O278   1.781       .  S
C270        O283   1.265       .  A
C270       C1061   1.483       .  S
O271        C281   1.258       .  A
O271       Al273   1.896       .  S
O272        C285   1.261       .  A
O272       Al282   1.889       .  S
Al273       O286   1.928       .  S
Al273       O283   1.917       .  S
Al273       O278   1.779       .  S
O274        C281   1.261       .  A
O274       Al282   1.907       .  S
O275        C284   1.261       .  A
O275       Al282   1.913       .  S
O276       Al282   1.895       .  S
O277        C284   1.257       .  A
O278       Al282   1.785       .  S
O279        C280   1.260       .  A
C280       C1085   1.466       .  S
C281       C1997   1.488       .  S
C284       C1037   1.470       .  S
C285        O286   1.266       .  A
C285       C2141   1.487       .  S
O287        C302   1.257       .  A
O287       Al295   1.906       .  S
C288        O298   1.253       .  A
C288        O289   1.257       .  A
C288        C941   1.492       .  S
O289       Al291   1.906       .  S
O290        C292   1.262       .  A
O290       Al291   1.885       .  S
Al291       O299   1.882       .  S
Al291       O301   1.891       .  S
Al291       O300   1.790       .  S
C292        O305   1.268       .  A
C292        C974   1.485       .  S
O293        C303   1.257       .  A
O293       Al295   1.890       .  S
O294        C307   1.256       .  A
O294       Al304   1.875       .  S
Al295       O308   1.912       .  S
Al295       O305   1.920       .  S
Al295       O300   1.791       .  S
O296        C303   1.260       .  A
O296       Al304   1.901       .  S
O297        C306   1.269       .  A
O297       Al304   1.937       .  S
O298       Al304   1.896       .  S
O299        C306   1.261       .  A
O300       Al304   1.782       .  S
O301        C302   1.256       .  A
C302        C989   1.466       .  S
C303       C1733   1.465       .  S
C306       C1094   1.474       .  S
C307        O308   1.260       .  A
C307       C1886   1.479       .  S
O309        C324   1.257       .  A
O309       Al317   1.894       .  S
C310        O320   1.259       .  A
C310        O311   1.263       .  A
C310        C902   1.477       .  S
O311       Al313   1.924       .  S
O312        C314   1.259       .  A
O312       Al313   1.877       .  S
Al313       O321   1.883       .  S
Al313       O323   1.897       .  S
Al313       O322   1.779       .  S
C314        O327   1.268       .  A
C314        C917   1.481       .  S
O315        C325   1.261       .  A
O315       Al317   1.902       .  S
O316        C329   1.260       .  A
O316       Al326   1.881       .  S
Al317       O330   1.940       .  S
Al317       O327   1.940       .  S
Al317       O322   1.780       .  S
O318        C325   1.259       .  A
O318       Al326   1.906       .  S
O319        C328   1.261       .  A
O319       Al326   1.918       .  S
O320       Al326   1.886       .  S
O321        C328   1.258       .  A
O322       Al326   1.777       .  S
O323        C324   1.259       .  A
C324       C1046   1.459       .  S
C325       C1646   1.487       .  S
C328        C998   1.480       .  S
C329        O330   1.270       .  A
C329       C1574   1.483       .  S
O331        C346   1.262       .  A
O331       Al339   1.917       .  S
C332        O342   1.256       .  A
C332        O333   1.260       .  A
C332        C965   1.471       .  S
O333       Al335   1.916       .  S
O334        C336   1.265       .  A
O334       Al335   1.896       .  S
Al335       O343   1.886       .  S
Al335       O345   1.898       .  S
Al335       O344   1.779       .  S
C336        O349   1.269       .  A
C336        C845   1.499       .  S
O337        C347   1.264       .  A
O337       Al339   1.912       .  S
O338        C351   1.260       .  A
O338       Al348   1.878       .  S
Al339       O352   1.930       .  S
Al339       O349   1.941       .  S
Al339       O344   1.781       .  S
O340        C347   1.260       .  A
O340       Al348   1.900       .  S
O341        C350   1.265       .  A
O341       Al348   1.934       .  S
O342       Al348   1.886       .  S
O343        C350   1.259       .  A
O344       Al348   1.784       .  S
O345        C346   1.258       .  A
C346        C878   1.481       .  S
C347       C1478   1.489       .  S
C350        C821   1.473       .  S
C351        O352   1.266       .  A
C351       C1262   1.489       .  S
O353        C368   1.263       .  A
O353       Al361   1.920       .  S
C354        O364   1.258       .  A
C354        O355   1.263       .  A
C354        C782   1.479       .  S
O355       Al357   1.918       .  S
O356        C358   1.259       .  A
O356       Al357   1.882       .  S
Al357       O365   1.890       .  S
Al357       O367   1.897       .  S
Al357       O366   1.781       .  S
C358        O371   1.266       .  A
C358        C893   1.484       .  S
O359        C369   1.263       .  A
O359       Al361   1.920       .  S
O360        C373   1.259       .  A
O360       Al370   1.880       .  S
Al361       O374   1.941       .  S
Al361       O371   1.929       .  S
Al361       O366   1.792       .  S
O362        C369   1.258       .  A
O362       Al370   1.899       .  S
O363        C372   1.261       .  A
O363       Al370   1.932       .  S
O364       Al370   1.887       .  S
O365        C372   1.259       .  A
O366       Al370   1.784       .  S
O367        C368   1.259       .  A
C368        C830   1.483       .  S
C369       C1853   1.492       .  S
C372        C797   1.496       .  S
C373        O374   1.268       .  A
C373       C1757   1.475       .  S
O375        C390   1.262       .  A
O375       Al383   1.909       .  S
C376        O386   1.259       .  A
C376        O377   1.263       .  A
C376        C854   1.480       .  S
O377       Al379   1.924       .  S
O378        C380   1.260       .  A
O378       Al379   1.887       .  S
Al379       O387   1.882       .  S
Al379       O389   1.901       .  S
Al379       O388   1.778       .  S
C380        O393   1.268       .  A
C380        C950   1.480       .  S
O381        C391   1.262       .  A
O381       Al383   1.909       .  S
O382        C395   1.258       .  A
O382       Al392   1.885       .  S
Al383       O396   1.943       .  S
Al383       O393   1.935       .  S
Al383       O388   1.780       .  S
O384        C391   1.262       .  A
O384       Al392   1.912       .  S
O385        C394   1.264       .  A
O385       Al392   1.927       .  S
O386       Al392   1.898       .  S
O387        C394   1.258       .  A
O388       Al392   1.778       .  S
O389        C390   1.260       .  A
C390        C749   1.470       .  S
C391       C2117   1.480       .  S
C394        C734   1.493       .  S
C395        O396   1.269       .  A
C395       C1982   1.489       .  S
O397        C412   1.262       .  A
O397       Al405   1.915       .  S
C398        O408   1.255       .  A
C398        O399   1.258       .  A
C398       C1070   1.472       .  S
O399       Al401   1.912       .  S
O400        C402   1.262       .  A
O400       Al401   1.894       .  S
Al401       O409   1.885       .  S
Al401       O411   1.890       .  S
Al401       O410   1.788       .  S
C402        O415   1.266       .  A
C402        C686   1.483       .  S
O403        C413   1.262       .  A
O403       Al405   1.913       .  S
O404        C417   1.256       .  A
O404       Al414   1.870       .  S
Al405       O418   1.935       .  S
Al405       O415   1.925       .  S
Al405       O410   1.793       .  S
O406        C413   1.262       .  A
O406       Al414   1.897       .  S
O407        C416   1.266       .  A
O407       Al414   1.934       .  S
O408       Al414   1.890       .  S
O409        C416   1.259       .  A
O410       Al414   1.780       .  S
O411        C412   1.259       .  A
C412        C701   1.481       .  S
C413       C1157   1.491       .  S
C416        C758   1.483       .  S
C417        O418   1.264       .  A
C417       C1406   1.488       .  S
O419        C434   1.264       .  A
O419       Al427   1.925       .  S
C420        O430   1.258       .  A
C420        O421   1.261       .  A
C420        C638   1.480       .  S
O421       Al423   1.915       .  S
O422        C424   1.262       .  A
O422       Al423   1.890       .  S
Al423       O431   1.887       .  S
Al423       O433   1.891       .  S
Al423       O432   1.778       .  S
C424        O437   1.269       .  A
C424        C653   1.489       .  S
O425        C435   1.262       .  A
O425       Al427   1.909       .  S
O426        C439   1.260       .  A
O426       Al436   1.882       .  S
Al427       O440   1.940       .  S
Al427       O437   1.936       .  S
Al427       O432   1.782       .  S
O428        C435   1.260       .  A
O428       Al436   1.906       .  S
O429        C438   1.265       .  A
O429       Al436   1.932       .  S
O430       Al436   1.895       .  S
O431        C438   1.259       .  A
O432       Al436   1.784       .  S
O433        C434   1.258       .  A
C434        C725   1.480       .  S
C435       C1238   1.482       .  S
C438        C710   1.477       .  S
C439        O440   1.269       .  A
C439       C1493   1.485       .  S
O441        C456   1.264       .  A
O441       Al449   1.919       .  S
C442        O452   1.258       .  A
C442        O443   1.261       .  A
C442        C581   1.484       .  S
O443       Al445   1.909       .  S
O444        C446   1.262       .  A
O444       Al445   1.887       .  S
Al445       O453   1.885       .  S
Al445       O455   1.890       .  S
Al445       O454   1.779       .  S
C446        O459   1.265       .  A
C446        C629   1.491       .  S
O447        C457   1.263       .  A
O447       Al449   1.916       .  S
O448        C461   1.261       .  A
O448       Al458   1.889       .  S
Al449       O462   1.926       .  S
Al449       O459   1.929       .  S
Al449       O454   1.780       .  S
O450        C457   1.263       .  A
O450       Al458   1.909       .  S
O451        C460   1.265       .  A
O451       Al458   1.929       .  S
O452       Al458   1.898       .  S
O453        C460   1.258       .  A
O454       Al458   1.780       .  S
O455        C456   1.259       .  A
C456        C614   1.480       .  S
C457       C1373   1.499       .  S
C460        C557   1.478       .  S
C461        O462   1.266       .  A
C461       C1190   1.485       .  S
O463        C478   1.263       .  A
O463       Al471   1.926       .  S
C464        O474   1.257       .  A
C464        O465   1.264       .  A
C464        C662   1.478       .  S
O465       Al467   1.928       .  S
O466        C468   1.260       .  A
O466       Al467   1.883       .  S
Al467       O475   1.888       .  S
Al467       O477   1.902       .  S
Al467       O476   1.778       .  S
C468        O481   1.270       .  A
C468        C590   1.490       .  S
O469        C479   1.261       .  A
O469       Al471   1.904       .  S
O470        C483   1.261       .  A
O470       Al480   1.880       .  S
Al471       O484   1.938       .  S
Al471       O481   1.935       .  S
Al471       O476   1.777       .  S
O472        C479   1.260       .  A
O472       Al480   1.916       .  S
O473        C482   1.267       .  A
O473       Al480   1.945       .  S
O474       Al480   1.894       .  S
O475        C482   1.259       .  A
O476       Al480   1.781       .  S
O477        C478   1.260       .  A
C478        C806   1.483       .  S
C479       C1109   1.494       .  S
C482        C869   1.480       .  S
C483        O484   1.270       .  A
C483       C1325   1.475       .  S
O485        C500   1.265       .  A
O485       Al493   1.928       .  S
C486        O496   1.264       .  A
C486        O487   1.255       .  A
C486        C926   1.480       .  S
O487       Al489   1.878       .  S
O488        C490   1.263       .  A
O488       Al489   1.902       .  S
Al489       O497   1.914       .  S
Al489       O499   1.888       .  S
Al489       O498   1.778       .  S
C490        O503   1.263       .  A
C490        C773   1.472       .  S
O491        C501   1.264       .  A
O491       Al493   1.930       .  S
O492        C505   1.266       .  A
O492       Al502   1.917       .  S
Al493       O506   1.896       .  S
Al493       O503   1.903       .  S
Al493       O498   1.789       .  S
O494        C501   1.258       .  A
O494       Al502   1.886       .  S
O495        C504   1.259       .  A
O495       Al502   1.895       .  S
O496       Al502   1.928       .  S
O497        C504   1.263       .  A
O498       Al502   1.782       .  S
O499        C500   1.258       .  A
C500        C566   1.485       .  S
C501       C1301   1.475       .  S
C504        C533   1.479       .  S
C505        O506   1.261       .  A
C505       C1142   1.486       .  S
O507        C522   1.263       .  A
O507       Al515   1.917       .  S
C508        O518   1.258       .  A
C508        O509   1.261       .  A
C508        C677   1.481       .  S
O509       Al511   1.913       .  S
O510        C512   1.261       .  A
O510       Al511   1.886       .  S
Al511       O519   1.879       .  S
Al511       O521   1.894       .  S
Al511       O520   1.776       .  S
C512        O525   1.268       .  A
C512       C1022   1.482       .  S
O513        C523   1.260       .  A
O513       Al515   1.899       .  S
O514        C527   1.257       .  A
O514       Al524   1.872       .  S
Al515       O528   1.931       .  S
Al515       O525   1.927       .  S
Al515       O520   1.781       .  S
O516        C523   1.261       .  A
O516       Al524   1.906       .  S
O517        C526   1.265       .  A
O517       Al524   1.931       .  S
O518       Al524   1.891       .  S
O519        C526   1.258       .  A
O520       Al524   1.784       .  S
O521        C522   1.258       .  A
C522        C542   1.476       .  S
C523       C1541   1.473       .  S
C526        C605   1.471       .  S
C527        O528   1.267       .  A
C527       C1613   1.481       .  S
C529        C530   1.401       .  A
C529        C534   1.401       .  A
C529        H539   1.083       .  S
C530        C535   1.482       .  S
C530        C531   1.413       .  A
C531        C532   1.398       .  A
C531        S536   1.805       .  S
C532        C533   1.403       .  A
C532        H537   1.084       .  S
C533        C534   1.417       .  A
C534        S538   1.801       .  S
C535        C540   1.410       .  A
C535        C544   1.404       .  A
S536        H552   1.406       .  S
S538        H549   1.402       .  S
C540        C541   1.398       .  A
C540        S545   1.809       .  S
C541        C542   1.404       .  A
C541        H546   1.083       .  S
C542        C543   1.413       .  A
C543        C544   1.404       .  A
C543        S547   1.801       .  S
C544        H548   1.083       .  S
S545        H550   1.407       .  S
S547        H551   1.404       .  S
C553        C554   1.405       .  A
C553        C558   1.399       .  A
C553        H563   1.083       .  S
C554        C559   1.487       .  S
C554        C555   1.416       .  A
C555        C556   1.403       .  A
C555        S560   1.806       .  S
C556        C557   1.405       .  A
C556        H561   1.083       .  S
C557        C558   1.412       .  A
C558        S562   1.803       .  S
C559        C564   1.411       .  A
C559        C568   1.403       .  A
S560        H576   1.404       .  S
S562        H573   1.407       .  S
C564        C565   1.404       .  A
C564        S569   1.807       .  S
C565        C566   1.408       .  A
C565        H570   1.084       .  S
C566        C567   1.416       .  A
C567        C568   1.400       .  A
C567        S571   1.805       .  S
C568        H572   1.087       .  S
S569        H574   1.407       .  S
S571        H575   1.406       .  S
C577        C578   1.401       .  A
C577        C582   1.401       .  A
C577        H587   1.083       .  S
C578        C583   1.482       .  S
C578        C579   1.414       .  A
C579        C580   1.397       .  A
C579        S584   1.805       .  S
C580        C581   1.405       .  A
C580        H585   1.082       .  S
C581        C582   1.418       .  A
C582        S586   1.800       .  S
C583        C588   1.408       .  A
C583        C592   1.401       .  A
S584        H600   1.403       .  S
S586        H597   1.407       .  S
C588        C589   1.402       .  A
C588        S593   1.807       .  S
C589        C590   1.407       .  A
C589        H594   1.084       .  S
C590        C591   1.419       .  A
C591        C592   1.403       .  A
C591        S595   1.809       .  S
C592        H596   1.084       .  S
S593        H598   1.407       .  S
S595        H599   1.407       .  S
C601        C602   1.399       .  A
C601        C606   1.396       .  A
C601        H611   1.083       .  S
C602        C607   1.476       .  S
C602        C603   1.414       .  A
C603        C604   1.401       .  A
C603        S608   1.805       .  S
C604        C605   1.402       .  A
C604        H609   1.083       .  S
C605        C606   1.415       .  A
C606        S610   1.806       .  S
C607        C612   1.406       .  A
C607        C616   1.403       .  A
S608        H624   1.405       .  S
S610        H621   1.405       .  S
C612        C613   1.397       .  A
C612        S617   1.809       .  S
C613        C614   1.408       .  A
C613        H618   1.083       .  S
C614        C615   1.415       .  A
C615        C616   1.403       .  A
C615        S619   1.800       .  S
C616        H620   1.083       .  S
S617        H622   1.407       .  S
S619        H623   1.404       .  S
C625        C626   1.400       .  A
C625        C630   1.406       .  A
C625        H635   1.084       .  S
C626        C631   1.482       .  S
C626        C627   1.408       .  A
C627        C628   1.395       .  A
C627        S632   1.799       .  S
C628        C629   1.407       .  A
C628        H633   1.086       .  S
C629        C630   1.422       .  A
C630        S634   1.808       .  S
C631        C636   1.408       .  A
C631        C640   1.402       .  A
S632        H648   1.405       .  S
S634        H645   1.406       .  S
C636        C637   1.404       .  A
C636        S641   1.806       .  S
C637        C638   1.407       .  A
C637        H642   1.082       .  S
C638        C639   1.414       .  A
C639        C640   1.399       .  A
C639        S643   1.804       .  S
C640        H644   1.083       .  S
S641        H646   1.407       .  S
S643        H647   1.408       .  S
C649        C650   1.401       .  A
C649        C654   1.405       .  A
C649        H659   1.084       .  S
C650        C655   1.480       .  S
C650        C651   1.409       .  A
C651        C652   1.399       .  A
C651        S656   1.803       .  S
C652        C653   1.407       .  A
C652        H657   1.084       .  S
C653        C654   1.416       .  A
C654        S658   1.806       .  S
C655        C660   1.410       .  A
C655        C664   1.398       .  A
S656        H672   1.405       .  S
S658        H669   1.406       .  S
C660        C661   1.404       .  A
C660        S665   1.805       .  S
C661        C662   1.402       .  A
C661        H666   1.085       .  S
C662        C663   1.419       .  A
C663        C664   1.399       .  A
C663        S667   1.803       .  S
C664        H668   1.086       .  S
S665        H670   1.406       .  S
S667        H671   1.402       .  S
C673        C674   1.401       .  A
C673        C678   1.396       .  A
C673        H683   1.087       .  S
C674        C679   1.476       .  S
C674        C675   1.410       .  A
C675        C676   1.400       .  A
C675        S680   1.804       .  S
C676        C677   1.407       .  A
C676        H681   1.086       .  S
C677        C678   1.415       .  A
C678        S682   1.804       .  S
C679        C684   1.408       .  A
C679        C688   1.397       .  A
S680        H696   1.404       .  S
S682        H693   1.408       .  S
C684        C685   1.404       .  A
C684        S689   1.806       .  S
C685        C686   1.407       .  A
C685        H690   1.083       .  S
C686        C687   1.419       .  A
C687        C688   1.397       .  A
C687        S691   1.799       .  S
C688        H692   1.084       .  S
S689        H694   1.407       .  S
S691        H695   1.406       .  S
C697        C698   1.406       .  A
C697        C702   1.408       .  A
C697        H707   1.083       .  S
C698        C703   1.481       .  S
C698        C699   1.410       .  A
C699        C700   1.393       .  A
C699        S704   1.805       .  S
C700        C701   1.405       .  A
C700        H705   1.085       .  S
C701        C702   1.413       .  A
C702        S706   1.806       .  S
C703        C708   1.411       .  A
C703        C712   1.400       .  A
S704        H720   1.406       .  S
S706        H717   1.406       .  S
C708        C709   1.406       .  A
C708        S713   1.806       .  S
C709        C710   1.404       .  A
C709        H714   1.083       .  S
C710        C711   1.415       .  A
C711        C712   1.397       .  A
C711        S715   1.804       .  S
C712        H716   1.085       .  S
S713        H718   1.407       .  S
S715        H719   1.407       .  S
C721        C722   1.396       .  A
C721        C726   1.391       .  A
C721        H731   1.085       .  S
C722        C727   1.480       .  S
C722        C723   1.416       .  A
C723        C724   1.407       .  A
C723        S728   1.804       .  S
C724        C725   1.404       .  A
C724        H729   1.084       .  S
C725        C726   1.416       .  A
C726        S730   1.800       .  S
C727        C732   1.407       .  A
C727        C736   1.401       .  A
S728        H744   1.405       .  S
S730        H741   1.400       .  S
C732        C733   1.402       .  A
C732        S737   1.808       .  S
C733        C734   1.412       .  A
C733        H738   1.081       .  S
C734        C735   1.420       .  A
C735        C736   1.401       .  A
C735        S739   1.801       .  S
C736        H740   1.083       .  S
S737        H742   1.406       .  S
S739        H743   1.408       .  S
C745        C746   1.405       .  A
C745        C750   1.400       .  A
C745        H755   1.084       .  S
C746        C751   1.486       .  S
C746        C747   1.415       .  A
C747        C748   1.399       .  A
C747        S752   1.805       .  S
C748        C749   1.402       .  A
C748        H753   1.084       .  S
C749        C750   1.410       .  A
C750        S754   1.800       .  S
C751        C756   1.412       .  A
C751        C760   1.400       .  A
S752        H768   1.406       .  S
S754        H765   1.405       .  S
C756        C757   1.404       .  A
C756        S761   1.808       .  S
C757        C758   1.405       .  A
C757        H762   1.083       .  S
C758        C759   1.415       .  A
C759        C760   1.402       .  A
C759        S763   1.803       .  S
C760        H764   1.083       .  S
S761        H766   1.407       .  S
S763        H767   1.406       .  S
C769        C770   1.404       .  A
C769        C774   1.402       .  A
C769        H779   1.084       .  S
C770        C775   1.479       .  S
C770        C771   1.410       .  A
C771        C772   1.394       .  A
C771        S776   1.805       .  S
C772        C773   1.403       .  A
C772        H777   1.085       .  S
C773        C774   1.414       .  A
C774        S778   1.802       .  S
C775        C780   1.407       .  A
C775        C784   1.403       .  A
S776        H792   1.406       .  S
S778        H789   1.404       .  S
C780        C781   1.403       .  A
C780        S785   1.806       .  S
C781        C782   1.408       .  A
C781        H786   1.083       .  S
C782        C783   1.414       .  A
C783        C784   1.398       .  A
C783        S787   1.803       .  S
C784        H788   1.083       .  S
S785        H790   1.407       .  S
S787        H791   1.407       .  S
C793        C794   1.401       .  A
C793        C798   1.405       .  A
C793        H803   1.085       .  S
C794        C799   1.482       .  S
C794        C795   1.410       .  A
C795        C796   1.397       .  A
C795        S800   1.806       .  S
C796        C797   1.407       .  A
C796        H801   1.083       .  S
C797        C798   1.423       .  A
C798        S802   1.800       .  S
C799        C804   1.413       .  A
C799        C808   1.395       .  A
S800        H816   1.404       .  S
S802        H813   1.399       .  S
C804        C805   1.412       .  A
C804        S809   1.804       .  S
C805        C806   1.405       .  A
C805        H810   1.082       .  S
C806        C807   1.415       .  A
C807        C808   1.393       .  A
C807        S811   1.796       .  S
C808        H812   1.085       .  S
S809        H814   1.407       .  S
S811        H815   1.403       .  S
C817        C818   1.407       .  A
C817        C822   1.405       .  A
C817        H827   1.085       .  S
C818        C823   1.486       .  S
C818        C819   1.413       .  A
C819        C820   1.396       .  A
C819        S824   1.805       .  S
C820        C821   1.402       .  A
C820        H825   1.085       .  S
C821        C822   1.412       .  A
C822        S826   1.803       .  S
C823        C828   1.413       .  A
C823        C832   1.399       .  A
S824        H840   1.407       .  S
S826        H837   1.406       .  S
C828        C829   1.412       .  A
C828        S833   1.804       .  S
C829        C830   1.406       .  A
C829        H834   1.082       .  S
C830        C831   1.413       .  A
C831        C832   1.392       .  A
C831        S835   1.796       .  S
C832        H836   1.084       .  S
S833        H838   1.407       .  S
S835        H839   1.407       .  S
C841        C842   1.402       .  A
C841        C846   1.406       .  A
C841        H851   1.085       .  S
C842        C847   1.486       .  S
C842        C843   1.409       .  A
C843        C844   1.398       .  A
C843        S848   1.804       .  S
C844        C845   1.410       .  A
C844        H849   1.085       .  S
C845        C846   1.423       .  A
C846        S850   1.801       .  S
C847        C852   1.409       .  A
C847        C856   1.403       .  A
S848        H864   1.405       .  S
S850        H861   1.408       .  S
C852        C853   1.406       .  A
C852        S857   1.805       .  S
C853        C854   1.407       .  A
C853        H858   1.084       .  S
C854        C855   1.413       .  A
C855        C856   1.400       .  A
C855        S859   1.803       .  S
C856        H860   1.085       .  S
S857        H862   1.407       .  S
S859        H863   1.407       .  S
C865        C866   1.402       .  A
C865        C870   1.399       .  A
C865        H875   1.084       .  S
C866        C871   1.487       .  S
C866        C867   1.416       .  A
C867        C868   1.405       .  A
C867        S872   1.804       .  S
C868        C869   1.403       .  A
C868        H873   1.084       .  S
C869        C870   1.416       .  A
C870        S874   1.806       .  S
C871        C876   1.410       .  A
C871        C880   1.405       .  A
S872        H888   1.405       .  S
S874        H885   1.405       .  S
C876        C877   1.401       .  A
C876        S881   1.808       .  S
C877        C878   1.405       .  A
C877        H882   1.084       .  S
C878        C879   1.414       .  A
C879        C880   1.405       .  A
C879        S883   1.801       .  S
C880        H884   1.084       .  S
S881        H886   1.407       .  S
S883        H887   1.407       .  S
C889        C890   1.401       .  A
C889        C894   1.399       .  A
C889        H899   1.083       .  S
C890        C895   1.478       .  S
C890        C891   1.410       .  A
C891        C892   1.400       .  A
C891        S896   1.805       .  S
C892        C893   1.408       .  A
C892        H897   1.083       .  S
C893        C894   1.417       .  A
C894        S898   1.801       .  S
C895        C900   1.406       .  A
C895        C904   1.403       .  A
S896        H912   1.405       .  S
S898        H909   1.407       .  S
C900        C901   1.400       .  A
C900        S905   1.805       .  S
C901        C902   1.406       .  A
C901        H906   1.083       .  S
C902        C903   1.414       .  A
C903        C904   1.401       .  A
C903        S907   1.803       .  S
C904        H908   1.083       .  S
S905        H910   1.407       .  S
S907        H911   1.407       .  S
C913        C914   1.404       .  A
C913        C918   1.405       .  A
C913        H923   1.080       .  S
C914        C919   1.486       .  S
C914        C915   1.413       .  A
C915        C916   1.397       .  A
C915        S920   1.805       .  S
C916        C917   1.405       .  A
C916        H921   1.083       .  S
C917        C918   1.414       .  A
C918        S922   1.804       .  S
C919        C924   1.410       .  A
C919        C928   1.404       .  A
S920        H936   1.407       .  S
S922        H933   1.407       .  S
C924        C925   1.405       .  A
C924        S929   1.806       .  S
C925        C926   1.404       .  A
C925        H930   1.084       .  S
C926        C927   1.413       .  A
C927        C928   1.401       .  A
C927        S931   1.808       .  S
C928        H932   1.085       .  S
S929        H934   1.407       .  S
S931        H935   1.407       .  S
C937        C938   1.404       .  A
C937        C942   1.403       .  A
C937        H947   1.085       .  S
C938        C943   1.488       .  S
C938        C939   1.412       .  A
C939        C940   1.396       .  A
C939        S944   1.805       .  S
C940        C941   1.408       .  A
C940        H945   1.085       .  S
C941        C942   1.420       .  A
C942        S946   1.803       .  S
C943        C948   1.411       .  A
C943        C952   1.405       .  A
S944        H960   1.407       .  S
S946        H957   1.407       .  S
C948        C949   1.403       .  A
C948        S953   1.808       .  S
C949        C950   1.404       .  A
C949        H954   1.083       .  S
C950        C951   1.414       .  A
C951        C952   1.400       .  A
C951        S955   1.804       .  S
C952        H956   1.086       .  S
S953        H958   1.406       .  S
S955        H959   1.407       .  S
C961        C962   1.399       .  A
C961        C966   1.398       .  A
C961        H971   1.083       .  S
C962        C967   1.473       .  S
C962        C963   1.411       .  A
C963        C964   1.397       .  A
C963        S968   1.803       .  S
C964        C965   1.402       .  A
C964        H969   1.083       .  S
C965        C966   1.416       .  A
C966        S970   1.804       .  S
C967        C972   1.404       .  A
C967        C976   1.400       .  A
S968        H984   1.404       .  S
S970        H981   1.407       .  S
C972        C973   1.400       .  A
C972        S977   1.806       .  S
C973        C974   1.409       .  A
C973        H978   1.083       .  S
C974        C975   1.418       .  A
C975        C976   1.397       .  A
C975        S979   1.804       .  S
C976        H980   1.085       .  S
S977        H982   1.407       .  S
S979        H983   1.408       .  S
C985        C986   1.396       .  A
C985        C990   1.389       .  A
C985        H995   1.085       .  S
C986        C991   1.468       .  S
C986        C987   1.413       .  A
C987        C988   1.402       .  A
C987        S992   1.804       .  S
C988        C989   1.403       .  A
C988        H993   1.084       .  S
C989        C990   1.412       .  A
C990        S994   1.800       .  S
C991        C996   1.406       .  A
C991       C1000   1.396       .  A
S992       H1008   1.405       .  S
S994       H1005   1.404       .  S
C996        C997   1.400       .  A
C996       S1001   1.807       .  S
C997        C998   1.408       .  A
C997       H1002   1.082       .  S
C998        C999   1.419       .  A
C999       C1000   1.394       .  A
C999       S1003   1.800       .  S
C1000      H1004   1.084       .  S
S1001      H1006   1.407       .  S
S1003      H1007   1.407       .  S
C1009      C1010   1.399       .  A
C1009      C1014   1.404       .  A
C1009      H1019   1.085       .  S
C1010      C1015   1.479       .  S
C1010      C1011   1.410       .  A
C1011      C1012   1.398       .  A
C1011      S1016   1.805       .  S
C1012      C1013   1.406       .  A
C1012      H1017   1.086       .  S
C1013      C1014   1.420       .  A
C1014      S1018   1.807       .  S
C1015      C1020   1.407       .  A
C1015      C1024   1.401       .  A
S1016      H1032   1.406       .  S
S1018      H1029   1.406       .  S
C1020      C1021   1.401       .  A
C1020      S1025   1.806       .  S
C1021      C1022   1.407       .  A
C1021      H1026   1.086       .  S
C1022      C1023   1.415       .  A
C1023      C1024   1.403       .  A
C1023      S1027   1.809       .  S
C1024      H1028   1.086       .  S
S1025      H1030   1.407       .  S
S1027      H1031   1.406       .  S
C1033      C1034   1.403       .  A
C1033      C1038   1.396       .  A
C1033      H1043   1.084       .  S
C1034      C1039   1.473       .  S
C1034      C1035   1.410       .  A
C1035      C1036   1.398       .  A
C1035      S1040   1.805       .  S
C1036      C1037   1.405       .  A
C1036      H1041   1.083       .  S
C1037      C1038   1.410       .  A
C1038      S1042   1.803       .  S
C1039      C1044   1.409       .  A
C1039      C1048   1.402       .  A
S1040      H1056   1.405       .  S
S1042      H1053   1.407       .  S
C1044      C1045   1.399       .  A
C1044      S1049   1.807       .  S
C1045      C1046   1.399       .  A
C1045      H1050   1.082       .  S
C1046      C1047   1.410       .  A
C1047      C1048   1.396       .  A
C1047      S1051   1.806       .  S
C1048      H1052   1.084       .  S
S1049      H1054   1.407       .  S
S1051      H1055   1.404       .  S
C1057      C1058   1.402       .  A
C1057      C1062   1.400       .  A
C1057      H1067   1.085       .  S
C1058      C1063   1.476       .  S
C1058      C1059   1.408       .  A
C1059      C1060   1.397       .  A
C1059      S1064   1.805       .  S
C1060      C1061   1.407       .  A
C1060      H1065   1.082       .  S
C1061      C1062   1.416       .  A
C1062      S1066   1.805       .  S
C1063      C1068   1.409       .  A
C1063      C1072   1.399       .  A
S1064      H1080   1.404       .  S
S1066      H1077   1.408       .  S
C1068      C1069   1.403       .  A
C1068      S1073   1.806       .  S
C1069      C1070   1.403       .  A
C1069      H1074   1.084       .  S
C1070      C1071   1.414       .  A
C1071      C1072   1.397       .  A
C1071      S1075   1.802       .  S
C1072      H1076   1.086       .  S
S1073      H1078   1.407       .  S
S1075      H1079   1.406       .  S
C1081      C1082   1.401       .  A
C1081      C1086   1.399       .  A
C1081      H1091   1.083       .  S
C1082      C1087   1.475       .  S
C1082      C1083   1.412       .  A
C1083      C1084   1.397       .  A
C1083      S1088   1.805       .  S
C1084      C1085   1.401       .  A
C1084      H1089   1.084       .  S
C1085      C1086   1.412       .  A
C1086      S1090   1.799       .  S
C1087      C1092   1.410       .  A
C1087      C1096   1.398       .  A
S1088      H1104   1.405       .  S
S1090      H1101   1.404       .  S
C1092      C1093   1.403       .  A
C1092      S1097   1.807       .  S
C1093      C1094   1.403       .  A
C1093      H1098   1.085       .  S
C1094      C1095   1.413       .  A
C1095      C1096   1.396       .  A
C1095      S1099   1.796       .  S
C1096      H1100   1.086       .  S
S1097      H1102   1.407       .  S
S1099      H1103   1.407       .  S
C1105      C1106   1.398       .  A
C1105      C1110   1.398       .  A
C1105      H1115   1.084       .  S
C1106      C1111   1.482       .  S
C1106      C1107   1.412       .  A
C1107      C1108   1.404       .  A
C1107      S1112   1.805       .  S
C1108      C1109   1.410       .  A
C1108      H1113   1.082       .  S
C1109      C1110   1.422       .  A
C1110      S1114   1.801       .  S
C1111      C1116   1.409       .  A
C1111      C1120   1.400       .  A
S1112      H1128   1.405       .  S
S1114      H1125   1.405       .  S
C1116      C1117   1.407       .  A
C1116      S1121   1.806       .  S
C1117      C1118   1.407       .  A
C1117      H1122   1.082       .  S
C1118      C1119   1.416       .  A
C1119      C1120   1.398       .  A
C1119      S1123   1.804       .  S
C1120      H1124   1.085       .  S
S1121      H1126   1.407       .  S
S1123      H1127   1.408   1_565  S
C1129      C1130   1.401       .  A
C1129      C1134   1.397       .  A
C1129      H1139   1.084       .  S
C1130      C1135   1.487       .  S
C1130      C1131   1.416       .  A
C1131      C1132   1.402       .  A
C1131      S1136   1.806       .  S
C1132      C1133   1.406       .  A
C1132      H1137   1.083       .  S
C1133      C1134   1.419       .  A
C1134      S1138   1.804       .  S
C1135      C1140   1.411       .  A
C1135      C1144   1.404       .  A
S1136      H1152   1.406       .  S
S1138      H1149   1.407       .  S
C1140      C1141   1.402       .  A
C1140      S1145   1.809       .  S
C1141      C1142   1.408       .  A
C1141      H1146   1.080       .  S
C1142      C1143   1.418       .  A
C1143      C1144   1.401       .  A
C1143      S1147   1.805       .  S
C1144      H1148   1.082       .  S
S1145      H1150   1.406       .  S
S1147      H1151   1.401       .  S
C1153      C1154   1.407       .  A
C1153      C1158   1.407       .  A
C1153      H1163   1.082       .  S
C1154      C1159   1.489       .  S
C1154      C1155   1.411       .  A
C1155      C1156   1.395       .  A
C1155      S1160   1.805       .  S
C1156      C1157   1.408       .  A
C1156      H1161   1.083       .  S
C1157      C1158   1.419       .  A
C1158      S1162   1.802       .  S
C1159      C1164   1.409       .  A
C1159      C1168   1.408       .  A
S1160      H1176   1.406       .  S
S1162      H1173   1.403       .  S
C1164      C1165   1.401       .  A
C1164      S1169   1.807       .  S
C1165      C1166   1.408       .  A
C1165      H1170   1.082       .  S
C1166      C1167   1.411       .  A
C1167      C1168   1.403       .  A
C1167      S1171   1.801       .  S
C1168      H1172   1.083       .  S
S1169      H1174   1.407       .  S
S1171      H1175   1.407       .  S
C1177      C1178   1.401       .  A
C1177      C1182   1.398       .  A
C1177      H1187   1.086       .  S
C1178      C1183   1.480       .  S
C1178      C1179   1.413       .  A
C1179      C1180   1.401       .  A
C1179      S1184   1.804       .  S
C1180      C1181   1.405       .  A
C1180      H1185   1.085       .  S
C1181      C1182   1.416       .  A
C1182      S1186   1.802       .  S
C1183      C1188   1.409       .  A
C1183      C1192   1.401       .  A
S1184      H1200   1.405       .  S
S1186      H1197   1.407       .  S
C1188      C1189   1.402       .  A
C1188      S1193   1.807       .  S
C1189      C1190   1.408       .  A
C1189      H1194   1.081       .  S
C1190      C1191   1.417       .  A
C1191      C1192   1.399       .  A
C1191      S1195   1.802       .  S
C1192      H1196   1.082       .  S
S1193      H1198   1.407       .  S
S1195      H1199   1.406       .  S
C1201      C1202   1.403       .  A
C1201      C1206   1.398       .  A
C1201      H1211   1.083       .  S
C1202      C1207   1.493       .  S
C1202      C1203   1.416       .  A
C1203      C1204   1.407       .  A
C1203      S1208   1.802       .  S
C1204      C1205   1.405       .  A
C1204      H1209   1.083       .  S
C1205      C1206   1.416       .  A
C1206      S1210   1.802       .  S
C1207      C1212   1.411       .  A
C1207      C1216   1.408       .  A
S1208      H1224   1.407       .  S
S1210      H1221   1.407       .  S
C1212      C1213   1.401       .  A
C1212      S1217   1.808       .  S
C1213      C1214   1.406       .  A
C1213      H1218   1.086       .  S
C1214      C1215   1.413       .  A
C1215      C1216   1.407       .  A
C1215      S1219   1.802       .  S
C1216      H1220   1.086       .  S
S1217      H1222   1.407       .  S
S1219      H1223   1.406       .  S
C1225      C1226   1.403       .  A
C1225      C1230   1.405       .  A
C1225      H1235   1.087       .  S
C1226      C1231   1.485       .  S
C1226      C1227   1.410       .  A
C1227      C1228   1.396       .  A
C1227      S1232   1.806       .  S
C1228      C1229   1.410       .  A
C1228      H1233   1.087       .  S
C1229      C1230   1.420       .  A
C1230      S1234   1.799       .  S
C1231      C1236   1.409       .  A
C1231      C1240   1.404       .  A
S1232      H1248   1.405       .  S
S1234      H1245   1.408       .  S
C1236      C1237   1.403       .  A
C1236      S1241   1.807       .  S
C1237      C1238   1.406       .  A
C1237      H1242   1.082       .  S
C1238      C1239   1.416       .  A
C1239      C1240   1.404       .  A
C1239      S1243   1.804       .  S
C1240      H1244   1.083       .  S
S1241      H1246   1.407       .  S
S1243      H1247   1.408       .  S
C1249      C1250   1.403       .  A
C1249      C1254   1.397       .  A
C1249      H1259   1.088       .  S
C1250      C1255   1.481       .  S
C1250      C1251   1.412       .  A
C1251      C1252   1.400       .  A
C1251      S1256   1.803       .  S
C1252      C1253   1.402       .  A
C1252      H1257   1.089       .  S
C1253      C1254   1.411       .  A
C1254      S1258   1.802       .  S
C1255      C1260   1.407       .  A
C1255      C1264   1.402       .  A
S1256      H1272   1.406       .  S
S1258      H1269   1.404       .  S
C1260      C1261   1.401       .  A
C1260      S1265   1.808       .  S
C1261      C1262   1.410       .  A
C1261      H1266   1.083       .  S
C1262      C1263   1.419       .  A
C1263      C1264   1.401       .  A
C1263      S1267   1.802       .  S
C1264      H1268   1.084       .  S
S1265      H1270   1.407       .  S
S1267      H1271   1.407       .  S
C1273      C1274   1.401       .  A
C1273      C1278   1.403       .  A
C1273      H1283   1.084       .  S
C1274      C1279   1.482       .  S
C1274      C1275   1.410       .  A
C1275      C1276   1.402       .  A
C1275      S1280   1.807       .  S
C1276      C1277   1.410       .  A
C1276      H1281   1.084       .  S
C1277      C1278   1.420       .  A
C1278      S1282   1.811       .  S
C1279      C1284   1.410       .  A
C1279      C1288   1.400       .  A
S1280      H1296   1.403       .  S
S1282      H1293   1.407       .  S
C1284      C1285   1.403       .  A
C1284      S1289   1.807       .  S
C1285      C1286   1.404       .  A
C1285      H1290   1.082       .  S
C1286      C1287   1.419       .  A
C1287      C1288   1.402       .  A
C1287      S1291   1.804       .  S
C1288      H1292   1.083       .  S
S1289      H1294   1.406       .  S
S1291      H1295   1.405       .  S
C1297      C1298   1.402       .  A
C1297      C1302   1.397       .  A
C1297      H1307   1.085       .  S
C1298      C1303   1.484       .  S
C1298      C1299   1.415       .  A
C1299      C1300   1.401       .  A
C1299      S1304   1.804       .  S
C1300      C1301   1.403       .  A
C1300      H1305   1.086       .  S
C1301      C1302   1.412       .  A
C1302      S1306   1.802       .  S
C1303      C1308   1.412       .  A
C1303      C1312   1.404       .  A
S1304      H1320   1.407       .  S
S1306      H1317   1.407       .  S
C1308      C1309   1.403       .  A
C1308      S1313   1.807       .  S
C1309      C1310   1.402       .  A
C1309      H1314   1.084       .  S
C1310      C1311   1.411       .  A
C1311      C1312   1.398       .  A
C1311      S1315   1.804       .  S
C1312      H1316   1.085       .  S
S1313      H1318   1.407       .  S
S1315      H1319   1.404       .  S
C1321      C1322   1.404       .  A
C1321      C1326   1.399       .  A
C1321      H1331   1.085       .  S
C1322      C1327   1.480       .  S
C1322      C1323   1.411       .  A
C1323      C1324   1.398       .  A
C1323      S1328   1.804       .  S
C1324      C1325   1.404       .  A
C1324      H1329   1.086       .  S
C1325      C1326   1.413       .  A
C1326      S1330   1.803       .  S
C1327      C1332   1.406       .  A
C1327      C1336   1.402       .  A
S1328      H1344   1.406       .  S
S1330      H1341   1.406       .  S
C1332      C1333   1.400       .  A
C1332      S1337   1.807       .  S
C1333      C1334   1.409       .  A
C1333      H1338   1.084       .  S
C1334      C1335   1.419       .  A
C1335      C1336   1.400       .  A
C1335      S1339   1.800       .  S
C1336      H1340   1.084       .  S
S1337      H1342   1.406       .  S
S1339      H1343   1.408       .  S
C1345      C1346   1.399       .  A
C1345      C1350   1.401       .  A
C1345      H1355   1.083       .  S
C1346      C1351   1.477       .  S
C1346      C1347   1.410       .  A
C1347      C1348   1.398       .  A
C1347      S1352   1.805       .  S
C1348      C1349   1.409       .  A
C1348      H1353   1.082       .  S
C1349      C1350   1.421       .  A
C1350      S1354   1.797       .  S
C1351      C1356   1.412       .  A
C1351      C1360   1.395       .  A
S1352      H1368   1.405       .  S
S1354      H1365   1.403       .  S
C1356      C1357   1.410       .  A
C1356      S1361   1.804       .  S
C1357      C1358   1.405       .  A
C1357      H1362   1.082       .  S
C1358      C1359   1.415       .  A
C1359      C1360   1.391       .  A
C1359      S1363   1.800   1_565  S
C1360      H1364   1.084       .  S
S1361      H1366   1.407       .  S
S1363      H1367   1.404       .  S
C1369      C1370   1.403       .  A
C1369      C1374   1.405       .  A
C1369      H1379   1.085       .  S
C1370      C1375   1.486       .  S
C1370      C1371   1.408       .  A
C1371      C1372   1.399       .  A
C1371      S1376   1.805       .  S
C1372      C1373   1.412       .  A
C1372      H1377   1.084       .  S
C1373      C1374   1.420       .  A
C1374      S1378   1.800       .  S
C1375      C1380   1.407       .  A
C1375      C1384   1.403       .  A
S1376      H1392   1.405       .  S
S1378      H1389   1.408       .  S
C1380      C1381   1.403       .  A
C1380      S1385   1.807       .  S
C1381      C1382   1.408       .  A
C1381      H1386   1.084       .  S
C1382      C1383   1.417       .  A
C1383      C1384   1.405       .  A
C1383      S1387   1.800       .  S
C1384      H1388   1.084       .  S
S1385      H1390   1.407       .  S
S1387      H1391   1.406       .  S
C1393      C1394   1.401       .  A
C1393      C1398   1.395       .  A
C1393      H1403   1.085       .  S
C1394      C1399   1.484       .  S
C1394      C1395   1.414       .  A
C1395      C1396   1.405       .  A
C1395      S1400   1.803       .  S
C1396      C1397   1.405       .  A
C1396      H1401   1.085       .  S
C1397      C1398   1.415       .  A
C1398      S1402   1.806       .  S
C1399      C1404   1.408       .  A
C1399      C1408   1.405       .  A
S1400      H1416   1.406       .  S
S1402      H1413   1.407       .  S
C1404      C1405   1.397       .  A
C1404      S1409   1.808       .  S
C1405      C1406   1.407       .  A
C1405      H1410   1.082       .  S
C1406      C1407   1.417       .  A
C1407      C1408   1.407       .  A
C1407      S1411   1.801       .  S
C1408      H1412   1.083       .  S
S1409      H1414   1.407       .  S
S1411      H1415   1.407       .  S
C1417      C1418   1.399       .  A
C1417      C1422   1.398       .  A
C1417      H1427   1.084       .  S
C1418      C1423   1.480       .  S
C1418      C1419   1.411       .  A
C1419      C1420   1.401       .  A
C1419      S1424   1.808       .  S
C1420      C1421   1.403       .  A
C1420      H1425   1.084       .  S
C1421      C1422   1.413       .  A
C1422      S1426   1.802       .  S
C1423      C1428   1.410       .  A
C1423      C1432   1.403       .  A
S1424      H1440   1.407       .  S
S1426      H1437   1.407       .  S
C1428      C1429   1.400       .  A
C1428      S1433   1.808       .  S
C1429      C1430   1.407       .  A
C1429      H1434   1.082       .  S
C1430      C1431   1.413       .  A
C1431      C1432   1.396       .  A
C1431      S1435   1.802       .  S
C1432      H1436   1.083       .  S
S1433      H1438   1.407       .  S
S1435      H1439   1.404       .  S
C1441      C1442   1.399       .  A
C1441      C1446   1.400       .  A
C1441      H1451   1.083       .  S
C1442      C1447   1.477       .  S
C1442      C1443   1.411       .  A
C1443      C1444   1.399       .  A
C1443      S1448   1.804       .  S
C1444      C1445   1.404       .  A
C1444      H1449   1.083       .  S
C1445      C1446   1.419       .  A
C1446      S1450   1.802       .  S
C1447      C1452   1.408       .  A
C1447      C1456   1.403       .  A
S1448      H1464   1.406       .  S
S1450      H1461   1.408       .  S
C1452      C1453   1.403       .  A
C1452      S1457   1.805       .  S
C1453      C1454   1.403       .  A
C1453      H1458   1.083       .  S
C1454      C1455   1.410       .  A
C1455      C1456   1.399       .  A
C1455      S1459   1.805       .  S
C1456      H1460   1.084       .  S
S1457      H1462   1.407       .  S
S1459      H1463   1.407       .  S
C1465      C1466   1.397       .  A
C1465      C1470   1.397       .  A
C1465      H1475   1.084       .  S
C1466      C1471   1.481       .  S
C1466      C1467   1.413       .  A
C1467      C1468   1.404       .  A
C1467      S1472   1.804       .  S
C1468      C1469   1.407       .  A
C1468      H1473   1.083       .  S
C1469      C1470   1.423       .  A
C1470      S1474   1.800       .  S
C1471      C1476   1.409       .  A
C1471      C1480   1.398       .  A
S1472      H1488   1.405       .  S
S1474      H1485   1.402       .  S
C1476      C1477   1.406       .  A
C1476      S1481   1.806       .  S
C1477      C1478   1.407       .  A
C1477      H1482   1.084       .  S
C1478      C1479   1.421       .  A
C1479      C1480   1.399       .  A
C1479      S1483   1.804       .  S
C1480      H1484   1.084       .  S
S1481      H1486   1.407       .  S
S1483      H1487   1.407       .  S
C1489      C1490   1.405       .  A
C1489      C1494   1.409       .  A
C1489      H1499   1.086       .  S
C1490      C1495   1.486       .  S
C1490      C1491   1.412       .  A
C1491      C1492   1.397       .  A
C1491      S1496   1.805       .  S
C1492      C1493   1.405       .  A
C1492      H1497   1.086       .  S
C1493      C1494   1.413       .  A
C1494      S1498   1.806       .  S
C1495      C1500   1.411       .  A
C1495      C1504   1.400       .  A
S1496      H1512   1.405       .  S
S1498      H1509   1.407       .  S
C1500      C1501   1.408       .  A
C1500      S1505   1.806       .  S
C1501      C1502   1.407       .  A
C1501      H1506   1.084       .  S
C1502      C1503   1.416       .  A
C1503      C1504   1.399       .  A
C1503      S1507   1.802       .  S
C1504      H1508   1.086       .  S
S1505      H1510   1.407       .  S
S1507      H1511   1.407       .  S
C1513      C1514   1.402       .  A
C1513      C1518   1.400       .  A
C1513      H1523   1.084       .  S
C1514      C1519   1.481       .  S
C1514      C1515   1.411       .  A
C1515      C1516   1.402       .  A
C1515      S1520   1.804       .  S
C1516      C1517   1.408       .  A
C1516      H1521   1.084       .  S
C1517      C1518   1.415       .  A
C1518      S1522   1.803       .  S
C1519      C1524   1.410       .  A
C1519      C1528   1.403       .  A
S1520      H1536   1.405       .  S
S1522      H1533   1.407       .  S
C1524      C1525   1.403       .  A
C1524      S1529   1.806       .  S
C1525      C1526   1.402       .  A
C1525      H1530   1.083       .  S
C1526      C1527   1.412       .  A
C1527      C1528   1.402       .  A
C1527      S1531   1.806       .  S
C1528      H1532   1.083       .  S
S1529      H1534   1.407       .  S
S1531      H1535   1.406       .  S
C1537      C1538   1.402       .  A
C1537      C1542   1.396       .  A
C1537      H1547   1.084       .  S
C1538      C1543   1.482       .  S
C1538      C1539   1.415       .  A
C1539      C1540   1.401       .  A
C1539      S1544   1.805       .  S
C1540      C1541   1.403       .  A
C1540      H1545   1.083       .  S
C1541      C1542   1.413       .  A
C1542      S1546   1.804       .  S
C1543      C1548   1.409       .  A
C1543      C1552   1.398       .  A
S1544      H1560   1.405       .  S
S1546      H1557   1.405       .  S
C1548      C1549   1.405       .  A
C1548      S1553   1.807       .  S
C1549      C1550   1.409       .  A
C1549      H1554   1.081       .  S
C1550      C1551   1.424       .  A
C1551      C1552   1.396       .  A
C1551      S1555   1.803       .  S
C1552      H1556   1.083       .  S
S1553      H1558   1.406       .  S
S1555      H1559   1.405       .  S
C1561      C1562   1.399       .  A
C1561      C1566   1.395       .  A
C1561      H1571   1.086       .  S
C1562      C1567   1.482       .  S
C1562      C1563   1.416       .  A
C1563      C1564   1.403       .  A
C1563      S1568   1.804       .  S
C1564      C1565   1.403       .  A
C1564      H1569   1.085       .  S
C1565      C1566   1.416       .  A
C1566      S1570   1.802       .  S
C1567      C1572   1.409       .  A
C1567      C1576   1.403       .  A
S1568      H1584   1.405       .  S
S1570      H1581   1.405       .  S
C1572      C1573   1.403       .  A
C1572      S1577   1.807       .  S
C1573      C1574   1.407       .  A
C1573      H1578   1.084       .  S
C1574      C1575   1.414       .  A
C1575      C1576   1.399       .  A
C1575      S1579   1.799       .  S
C1576      H1580   1.085       .  S
S1577      H1582   1.407       .  S
S1579      H1583   1.404       .  S
C1585      C1586   1.404       .  A
C1585      C1590   1.405       .  A
C1585      H1595   1.080       .  S
C1586      C1591   1.490       .  S
C1586      C1587   1.413       .  A
C1587      C1588   1.399       .  A
C1587      S1592   1.805       .  S
C1588      C1589   1.409       .  A
C1588      H1593   1.080       .  S
C1589      C1590   1.419       .  A
C1590      S1594   1.802       .  S
C1591      C1596   1.413       .  A
C1591      C1600   1.405       .  A
S1592      H1608   1.407       .  S
S1594      H1605   1.408       .  S
C1596      C1597   1.407       .  A
C1596      S1601   1.806       .  S
C1597      C1598   1.406       .  A
C1597      H1602   1.086       .  S
C1598      C1599   1.410       .  A
C1599      C1600   1.398       .  A
C1599      S1603   1.803       .  S
C1600      H1604   1.086       .  S
S1601      H1606   1.407       .  S
S1603      H1607   1.407       .  S
C1609      C1610   1.399       .  A
C1609      C1614   1.398       .  A
C1609      H1619   1.083       .  S
C1610      C1615   1.477       .  S
C1610      C1611   1.411       .  A
C1611      C1612   1.399       .  A
C1611      S1616   1.804       .  S
C1612      C1613   1.406       .  A
C1612      H1617   1.083       .  S
C1613      C1614   1.418       .  A
C1614      S1618   1.808       .  S
C1615      C1620   1.411       .  A
C1615      C1624   1.399       .  A
S1616      H1632   1.406       .  S
S1618      H1629   1.407       .  S
C1620      C1621   1.401       .  A
C1620      S1625   1.808       .  S
C1621      C1622   1.403       .  A
C1621      H1626   1.083       .  S
C1622      C1623   1.416       .  A
C1623      C1624   1.396       .  A
C1623      S1627   1.804       .  S
C1624      H1628   1.083       .  S
S1625      H1630   1.407       .  S
S1627      H1631   1.406       .  S
C1633      C1634   1.399       .  A
C1633      C1638   1.397       .  A
C1633      H1643   1.084       .  S
C1634      C1639   1.475       .  S
C1634      C1635   1.410       .  A
C1635      C1636   1.399       .  A
C1635      S1640   1.804       .  S
C1636      C1637   1.406       .  A
C1636      H1641   1.084       .  S
C1637      C1638   1.419       .  A
C1638      S1642   1.804       .  S
C1639      C1644   1.407       .  A
C1639      C1648   1.396       .  A
S1640      H1656   1.405       .  S
S1642      H1653   1.408       .  S
C1644      C1645   1.404       .  A
C1644      S1649   1.806       .  S
C1645      C1646   1.408       .  A
C1645      H1650   1.084       .  S
C1646      C1647   1.422       .  A
C1647      C1648   1.395       .  A
C1647      S1651   1.801       .  S
C1648      H1652   1.086       .  S
S1649      H1654   1.407       .  S
S1651      H1655   1.404       .  S
C1657      C1658   1.397       .  A
C1657      C1662   1.389       .  A
C1657      H1667   1.083       .  S
C1658      C1663   1.475       .  S
C1658      C1659   1.416       .  A
C1659      C1660   1.404       .  A
C1659      S1664   1.805       .  S
C1660      C1661   1.403       .  A
C1660      H1665   1.083       .  S
C1661      C1662   1.412       .  A
C1662      S1666   1.797       .  S
C1663      C1668   1.406       .  A
C1663      C1672   1.401       .  A
S1664      H1680   1.405       .  S
S1666      H1677   1.404   1_545  S
C1668      C1669   1.397       .  A
C1668      S1673   1.808       .  S
C1669      C1670   1.410       .  A
C1669      H1674   1.081       .  S
C1670      C1671   1.419       .  A
C1671      C1672   1.399       .  A
C1671      S1675   1.801       .  S
C1672      H1676   1.083       .  S
S1673      H1678   1.407       .  S
S1675      H1679   1.408       .  S
C1681      C1682   1.400       .  A
C1681      C1686   1.398       .  A
C1681      H1691   1.085       .  S
C1682      C1687   1.478       .  S
C1682      C1683   1.413       .  A
C1683      C1684   1.395       .  A
C1683      S1688   1.802       .  S
C1684      C1685   1.400       .  A
C1684      H1689   1.085       .  S
C1685      C1686   1.417       .  A
C1686      S1690   1.802       .  S
C1687      C1692   1.405       .  A
C1687      C1696   1.400       .  A
S1688      H1704   1.404       .  S
S1690      H1701   1.407       .  S
C1692      C1693   1.402       .  A
C1692      S1697   1.806       .  S
C1693      C1694   1.411       .  A
C1693      H1698   1.083       .  S
C1694      C1695   1.419       .  A
C1695      C1696   1.400       .  A
C1695      S1699   1.810       .  S
C1696      H1700   1.084       .  S
S1697      H1702   1.407       .  S
S1699      H1703   1.407       .  S
C1705      C1706   1.403       .  A
C1705      C1710   1.398       .  A
C1705      H1715   1.084       .  S
C1706      C1711   1.483       .  S
C1706      C1707   1.413       .  A
C1707      C1708   1.404       .  A
C1707      S1712   1.806       .  S
C1708      C1709   1.407       .  A
C1708      H1713   1.083       .  S
C1709      C1710   1.411       .  A
C1710      S1714   1.803       .  S
C1711      C1716   1.410       .  A
C1711      C1720   1.402       .  A
S1712      H1728   1.404       .  S
S1714      H1725   1.406       .  S
C1716      C1717   1.406       .  A
C1716      S1721   1.805       .  S
C1717      C1718   1.404       .  A
C1717      H1722   1.084       .  S
C1718      C1719   1.411       .  A
C1719      C1720   1.398       .  A
C1719      S1723   1.803       .  S
C1720      H1724   1.085       .  S
S1721      H1726   1.407       .  S
S1723      H1727   1.404       .  S
C1729      C1730   1.405       .  A
C1729      C1734   1.398       .  A
C1729      H1739   1.083       .  S
C1730      C1735   1.489       .  S
C1730      C1731   1.417       .  A
C1731      C1732   1.401       .  A
C1731      S1736   1.804       .  S
C1732      C1733   1.399       .  A
C1732      H1737   1.083       .  S
C1733      C1734   1.408       .  A
C1734      S1738   1.804       .  S
C1735      C1740   1.414       .  A
C1735      C1744   1.405       .  A
S1736      H1752   1.407       .  S
S1738      H1749   1.406       .  S
C1740      C1741   1.405       .  A
C1740      S1745   1.808       .  S
C1741      C1742   1.403       .  A
C1741      H1746   1.083       .  S
C1742      C1743   1.410       .  A
C1743      C1744   1.399       .  A
C1743      S1747   1.804       .  S
C1744      H1748   1.084       .  S
S1745      H1750   1.407       .  S
S1747      H1751   1.406       .  S
C1753      C1754   1.402       .  A
C1753      C1758   1.402       .  A
C1753      H1763   1.084       .  S
C1754      C1759   1.483       .  S
C1754      C1755   1.413       .  A
C1755      C1756   1.401       .  A
C1755      S1760   1.804       .  S
C1756      C1757   1.402       .  A
C1756      H1761   1.084       .  S
C1757      C1758   1.415       .  A
C1758      S1762   1.806       .  S
C1759      C1764   1.410       .  A
C1759      C1768   1.400       .  A
S1760      H1776   1.406       .  S
S1762      H1773   1.407       .  S
C1764      C1765   1.405       .  A
C1764      S1769   1.805       .  S
C1765      C1766   1.406       .  A
C1765      H1770   1.083       .  S
C1766      C1767   1.419       .  A
C1767      C1768   1.400       .  A
C1767      S1771   1.804       .  S
C1768      H1772   1.085       .  S
S1769      H1774   1.407       .  S
S1771      H1775   1.407       .  S
C1777      C1778   1.395       .  A
C1777      C1782   1.391       .  A
C1777      H1787   1.084       .  S
C1778      C1783   1.485       .  S
C1778      C1779   1.416       .  A
C1779      C1780   1.410       .  A
C1779      S1784   1.803       .  S
C1780      C1781   1.407       .  A
C1780      H1785   1.082       .  S
C1781      C1782   1.420       .  A
C1782      S1786   1.798       .  S
C1783      C1788   1.408       .  A
C1783      C1792   1.404       .  A
S1784      H1800   1.406       .  S
S1786      H1797   1.394   1_455  S
C1788      C1789   1.402       .  A
C1788      S1793   1.808       .  S
C1789      C1790   1.410       .  A
C1789      H1794   1.082       .  S
C1790      C1791   1.418       .  A
C1791      C1792   1.402       .  A
C1791      S1795   1.802       .  S
C1792      H1796   1.084       .  S
S1793      H1798   1.407       .  S
S1795      H1799   1.408       .  S
C1801      C1802   1.404       .  A
C1801      C1806   1.401       .  A
C1801      H1811   1.081       .  S
C1802      C1807   1.479       .  S
C1802      C1803   1.412       .  A
C1803      C1804   1.400       .  A
C1803      S1808   1.807       .  S
C1804      C1805   1.405       .  A
C1804      H1809   1.082       .  S
C1805      C1806   1.414       .  A
C1806      S1810   1.805       .  S
C1807      C1812   1.407       .  A
C1807      C1816   1.400       .  A
S1808      H1824   1.403       .  S
S1810      H1821   1.407       .  S
C1812      C1813   1.401       .  A
C1812      S1817   1.808       .  S
C1813      C1814   1.408       .  A
C1813      H1818   1.084       .  S
C1814      C1815   1.421       .  A
C1815      C1816   1.403       .  A
C1815      S1819   1.799       .  S
C1816      H1820   1.085       .  S
S1817      H1822   1.406       .  S
S1819      H1823   1.407       .  S
C1825      C1826   1.406       .  A
C1825      C1830   1.406       .  A
C1825      H1835   1.087       .  S
C1826      C1831   1.481       .  S
C1826      C1827   1.409       .  A
C1827      C1828   1.394       .  A
C1827      S1832   1.805       .  S
C1828      C1829   1.404       .  A
C1828      H1833   1.087       .  S
C1829      C1830   1.412       .  A
C1830      S1834   1.803       .  S
C1831      C1836   1.407       .  A
C1831      C1840   1.401       .  A
S1832      H1848   1.406       .  S
S1834      H1845   1.406       .  S
C1836      C1837   1.406       .  A
C1836      S1841   1.805       .  S
C1837      C1838   1.409       .  A
C1837      H1842   1.082       .  S
C1838      C1839   1.415       .  A
C1839      C1840   1.398       .  A
C1839      S1843   1.803       .  S
C1840      H1844   1.084       .  S
S1841      H1846   1.407       .  S
S1843      H1847   1.407       .  S
C1849      C1850   1.399       .  A
C1849      C1854   1.397       .  A
C1849      H1859   1.085       .  S
C1850      C1855   1.486       .  S
C1850      C1851   1.415       .  A
C1851      C1852   1.408       .  A
C1851      S1856   1.805       .  S
C1852      C1853   1.409       .  A
C1852      H1857   1.084       .  S
C1853      C1854   1.420       .  A
C1854      S1858   1.804       .  S
C1855      C1860   1.409       .  A
C1855      C1864   1.397       .  A
S1856      H1872   1.404       .  S
S1858      H1869   1.406       .  S
C1860      C1861   1.411       .  A
C1860      S1865   1.805       .  S
C1861      C1862   1.412       .  A
C1861      H1866   1.082       .  S
C1862      C1863   1.425       .  A
C1863      C1864   1.398       .  A
C1863      S1867   1.801       .  S
C1864      H1868   1.085       .  S
S1865      H1870   1.407       .  S
S1867      H1871   1.406       .  S
C1873      C1874   1.398       .  A
C1873      C1878   1.397       .  A
C1873      H1883   1.084       .  S
C1874      C1879   1.477       .  S
C1874      C1875   1.412       .  A
C1875      C1876   1.401       .  A
C1875      S1880   1.803       .  S
C1876      C1877   1.404       .  A
C1876      H1881   1.084       .  S
C1877      C1878   1.418       .  A
C1878      S1882   1.803       .  S
C1879      C1884   1.407       .  A
C1879      C1888   1.402       .  A
S1880      H1896   1.406       .  S
S1882      H1893   1.407       .  S
C1884      C1885   1.398       .  A
C1884      S1889   1.807       .  S
C1885      C1886   1.404       .  A
C1885      H1890   1.084       .  S
C1886      C1887   1.415       .  A
C1887      C1888   1.402       .  A
C1887      S1891   1.801       .  S
C1888      H1892   1.084       .  S
S1889      H1894   1.407       .  S
S1891      H1895   1.407       .  S
C1897      C1898   1.403       .  A
C1897      C1902   1.408       .  A
C1897      H1907   1.082       .  S
C1898      C1903   1.488       .  S
C1898      C1899   1.412       .  A
C1899      C1900   1.398       .  A
C1899      S1904   1.805       .  S
C1900      C1901   1.407       .  A
C1900      H1905   1.083       .  S
C1901      C1902   1.420       .  A
C1902      S1906   1.806       .  S
C1903      C1908   1.414       .  A
C1903      C1912   1.402       .  A
S1904      H1920   1.406       .  S
S1906      H1917   1.407       .  S
C1908      C1909   1.407       .  A
C1908      S1913   1.807       .  S
C1909      C1910   1.402       .  A
C1909      H1914   1.082       .  S
C1910      C1911   1.412       .  A
C1911      C1912   1.399       .  A
C1911      S1915   1.801   1_455  S
C1912      H1916   1.083       .  S
S1913      H1918   1.407       .  S
S1915      H1919   1.406   1_655  S
C1921      C1922   1.404       .  A
C1921      C1926   1.399       .  A
C1921      H1931   1.083       .  S
C1922      C1927   1.473       .  S
C1922      C1923   1.409       .  A
C1923      C1924   1.397       .  A
C1923      S1928   1.805       .  S
C1924      C1925   1.406       .  A
C1924      H1929   1.083       .  S
C1925      C1926   1.408       .  A
C1926      S1930   1.807       .  S
C1927      C1932   1.404       .  A
C1927      C1936   1.400       .  A
S1928      H1944   1.404       .  S
S1930      H1941   1.407       .  S
C1932      C1933   1.396       .  A
C1932      S1937   1.809       .  S
C1933      C1934   1.410       .  A
C1933      H1938   1.082       .  S
C1934      C1935   1.419       .  A
C1935      C1936   1.405       .  A
C1935      S1939   1.808       .  S
C1936      H1940   1.082       .  S
S1937      H1942   1.407       .  S
S1939      H1943   1.407       .  S
C1945      C1946   1.405       .  A
C1945      C1950   1.402       .  A
C1945      H1955   1.083       .  S
C1946      C1951   1.486       .  S
C1946      C1947   1.412       .  A
C1947      C1948   1.401       .  A
C1947      S1952   1.803       .  S
C1948      C1949   1.406       .  A
C1948      H1953   1.083       .  S
C1949      C1950   1.415       .  A
C1950      S1954   1.805       .  S
C1951      C1956   1.408       .  A
C1951      C1960   1.402       .  A
S1952      H1968   1.406       .  S
S1954      H1965   1.407       .  S
C1956      C1957   1.401       .  A
C1956      S1961   1.808       .  S
C1957      C1958   1.409       .  A
C1957      H1962   1.083       .  S
C1958      C1959   1.421       .  A
C1959      C1960   1.403       .  A
C1959      S1963   1.801       .  S
C1960      H1964   1.085       .  S
S1961      H1966   1.407       .  S
S1963      H1967   1.408       .  S
C1969      C1970   1.405       .  A
C1969      C1974   1.407       .  A
C1969      H1979   1.083       .  S
C1970      C1975   1.487       .  S
C1970      C1971   1.413       .  A
C1971      C1972   1.398       .  A
C1971      S1976   1.805       .  S
C1972      C1973   1.404       .  A
C1972      H1977   1.083       .  S
C1973      C1974   1.414       .  A
C1974      S1978   1.807       .  S
C1975      C1980   1.411       .  A
C1975      C1984   1.399       .  A
S1976      H1992   1.406       .  S
S1978      H1989   1.407       .  S
C1980      C1981   1.408       .  A
C1980      S1985   1.806       .  S
C1981      C1982   1.408       .  A
C1981      H1986   1.083       .  S
C1982      C1983   1.421       .  A
C1983      C1984   1.397       .  A
C1983      S1987   1.803       .  S
C1984      H1988   1.085       .  S
S1985      H1990   1.407       .  S
S1987      H1991   1.405       .  S
C1993      C1994   1.400       .  A
C1993      C1998   1.400       .  A
C1993      H2003   1.086       .  S
C1994      C1999   1.475       .  S
C1994      C1995   1.409       .  A
C1995      C1996   1.396       .  A
C1995      S2000   1.805       .  S
C1996      C1997   1.409       .  A
C1996      H2001   1.085       .  S
C1997      C1998   1.419       .  A
C1998      S2002   1.801       .  S
C1999      C2004   1.405       .  A
C1999      C2008   1.402       .  A
S2000      H2016   1.405       .  S
S2002      H2013   1.408       .  S
C2004      C2005   1.399       .  A
C2004      S2009   1.807       .  S
C2005      C2006   1.408       .  A
C2005      H2010   1.081       .  S
C2006      C2007   1.416       .  A
C2007      C2008   1.402       .  A
C2007      S2011   1.803       .  S
C2008      H2012   1.083       .  S
S2009      H2014   1.407       .  S
S2011      H2015   1.408       .  S
C2017      C2018   1.399       .  A
C2017      C2022   1.400       .  A
C2017      H2027   1.084       .  S
C2018      C2023   1.481       .  S
C2018      C2019   1.413       .  A
C2019      C2020   1.402       .  A
C2019      S2024   1.805       .  S
C2020      C2021   1.406       .  A
C2020      H2025   1.084       .  S
C2021      C2022   1.421       .  A
C2022      S2026   1.801       .  S
C2023      C2028   1.409       .  A
C2023      C2032   1.400       .  A
S2024      H2040   1.405       .  S
S2026      H2037   1.406       .  S
C2028      C2029   1.406       .  A
C2028      S2033   1.805       .  S
C2029      C2030   1.408       .  A
C2029      H2034   1.085       .  S
C2030      C2031   1.415       .  A
C2031      C2032   1.397       .  A
C2031      S2035   1.803       .  S
C2032      H2036   1.086       .  S
S2033      H2038   1.407       .  S
S2035      H2039   1.408       .  S
C2041      C2042   1.403       .  A
C2041      C2046   1.398       .  A
C2041      H2051   1.086       .  S
C2042      C2047   1.479       .  S
C2042      C2043   1.412       .  A
C2043      C2044   1.399       .  A
C2043      S2048   1.804       .  S
C2044      C2045   1.405       .  A
C2044      H2049   1.086       .  S
C2045      C2046   1.411       .  A
C2046      S2050   1.805       .  S
C2047      C2052   1.409       .  A
C2047      C2056   1.401       .  A
S2048      H2064   1.406       .  S
S2050      H2061   1.407       .  S
C2052      C2053   1.404       .  A
C2052      S2057   1.806       .  S
C2053      C2054   1.406       .  A
C2053      H2058   1.082       .  S
C2054      C2055   1.414       .  A
C2055      C2056   1.397       .  A
C2055      S2059   1.803       .  S
C2056      H2060   1.083       .  S
S2057      H2062   1.407       .  S
S2059      H2063   1.405       .  S
C2065      C2066   1.403       .  A
C2065      C2070   1.396       .  A
C2065      H2075   1.083       .  S
C2066      C2071   1.474       .  S
C2066      C2067   1.411       .  A
C2067      C2068   1.397       .  A
C2067      S2072   1.805       .  S
C2068      C2069   1.403       .  A
C2068      H2073   1.084       .  S
C2069      C2070   1.411       .  A
C2070      S2074   1.804       .  S
C2071      C2076   1.408       .  A
C2071      C2080   1.403       .  A
S2072      H2088   1.405       .  S
S2074      H2085   1.406       .  S
C2076      C2077   1.400       .  A
C2076      S2081   1.807       .  S
C2077      C2078   1.402       .  A
C2077      H2082   1.083       .  S
C2078      C2079   1.409       .  A
C2079      C2080   1.397       .  A
C2079      S2083   1.806       .  S
C2080      H2084   1.083       .  S
S2081      H2086   1.405       .  S
S2083      H2087   1.406       .  S
C2089      C2090   1.399       .  A
C2089      C2094   1.398       .  A
C2089      H2099   1.084       .  S
C2090      C2095   1.480       .  S
C2090      C2091   1.416       .  A
C2091      C2092   1.403       .  A
C2091      S2096   1.807       .  S
C2092      C2093   1.403       .  A
C2092      H2097   1.082       .  S
C2093      C2094   1.417       .  A
C2094      S2098   1.803       .  S
C2095      C2100   1.407       .  A
C2095      C2104   1.400       .  A
S2096      H2112   1.402       .  S
S2098      H2109   1.407       .  S
C2100      C2101   1.405       .  A
C2100      S2105   1.805       .  S
C2101      C2102   1.409       .  A
C2101      H2106   1.084       .  S
C2102      C2103   1.416       .  A
C2103      C2104   1.402       .  A
C2103      S2107   1.809       .  S
C2104      H2108   1.084       .  S
S2105      H2110   1.407       .  S
S2107      H2111   1.406       .  S
C2113      C2114   1.401       .  A
C2113      C2118   1.398       .  A
C2113      H2123   1.084       .  S
C2114      C2119   1.483       .  S
C2114      C2115   1.414       .  A
C2115      C2116   1.403       .  A
C2115      S2120   1.804       .  S
C2116      C2117   1.405       .  A
C2116      H2121   1.083       .  S
C2117      C2118   1.415       .  A
C2118      S2122   1.804       .  S
C2119      C2124   1.409       .  A
C2119      C2128   1.398       .  A
S2120      H2136   1.405       .  S
S2122      H2133   1.407       .  S
C2124      C2125   1.407       .  A
C2124      S2129   1.806       .  S
C2125      C2126   1.409       .  A
C2125      H2130   1.084       .  S
C2126      C2127   1.423       .  A
C2127      C2128   1.398       .  A
C2127      S2131   1.800       .  S
C2128      H2132   1.085       .  S
S2129      H2134   1.407       .  S
S2131      H2135   1.402       .  S
C2137      C2138   1.403       .  A
C2137      C2142   1.401       .  A
C2137      H2147   1.082       .  S
C2138      C2143   1.484       .  S
C2138      C2139   1.410       .  A
C2139      C2140   1.400       .  A
C2139      S2144   1.804       .  S
C2140      C2141   1.408       .  A
C2140      H2145   1.079       .  S
C2141      C2142   1.418       .  A
C2142      S2146   1.802       .  S
C2143      C2148   1.410       .  A
C2143      C2152   1.403       .  A
S2144      H2160   1.406       .  S
S2146      H2157   1.408       .  S
C2148      C2149   1.403       .  A
C2148      S2153   1.807       .  S
C2149      C2150   1.406       .  A
C2149      H2154   1.083       .  S
C2150      C2151   1.414       .  A
C2151      C2152   1.399       .  A
C2151      S2155   1.803       .  S
C2152      H2156   1.084       .  S
S2153      H2158   1.407       .  S
S2155      H2159   1.407       .  S
C2161      C2162   1.401       .  A
C2161      C2166   1.405       .  A
C2161      H2171   1.085       .  S
C2162      C2167   1.481       .  S
C2162      C2163   1.409       .  A
C2163      C2164   1.396       .  A
C2163      S2168   1.805       .  S
C2164      C2165   1.409       .  A
C2164      H2169   1.085       .  S
C2165      C2166   1.422       .  A
C2166      S2170   1.809       .  S
C2167      C2172   1.408       .  A
C2167      C2176   1.404       .  A
S2168      H2184   1.406       .  S
S2170      H2181   1.407       .  S
C2172      C2173   1.401       .  A
C2172      S2177   1.807       .  S
C2173      C2174   1.407       .  A
C2173      H2178   1.084       .  S
C2174      C2175   1.412       .  A
C2175      C2176   1.399       .  A
C2175      S2179   1.801       .  S
C2176      H2180   1.086       .  S
S2177      H2182   1.407       .  S
S2179      H2183   1.406       .  S
C2185      C2186   1.401       .  A
C2185      C2190   1.394       .  A
C2185      H2195   1.085       .  S
C2186      C2191   1.479       .  S
C2186      C2187   1.413       .  A
C2187      C2188   1.403       .  A
C2187      S2192   1.803       .  S
C2188      C2189   1.403       .  A
C2188      H2193   1.085       .  S
C2189      C2190   1.411       .  A
C2190      S2194   1.800       .  S
C2191      C2196   1.409       .  A
C2191      C2200   1.404       .  A
S2192      H2208   1.406       .  S
S2194      H2205   1.407       .  S
C2196      C2197   1.401       .  A
C2196      S2201   1.807       .  S
C2197      C2198   1.403       .  A
C2197      H2202   1.082       .  S
C2198      C2199   1.408       .  A
C2199      C2200   1.400       .  A
C2199      S2203   1.801       .  S
C2200      H2204   1.083       .  S
S2201      H2206   1.407       .  S
S2203      H2207   1.406       .  S
C2209      C2210   1.404       .  A
C2209      C2214   1.398       .  A
C2209      H2219   1.085       .  S
C2210      C2215   1.481       .  S
C2210      C2211   1.413       .  A
C2211      C2212   1.398       .  A
C2211      S2216   1.804       .  S
C2212      C2213   1.403       .  A
C2212      H2217   1.084       .  S
C2213      C2214   1.411       .  A
C2214      S2218   1.804       .  S
C2215      C2220   1.409       .  A
C2215      C2224   1.399       .  A
S2216      H2232   1.406       .  S
S2218      H2229   1.407       .  S
C2220      C2221   1.402       .  A
C2220      S2225   1.808       .  S
C2221      C2222   1.410       .  A
C2221      H2226   1.083       .  S
C2222      C2223   1.420       .  A
C2223      C2224   1.397       .  A
C2223      S2227   1.802       .  S
C2224      H2228   1.085       .  S
S2225      H2230   1.406       .  S
S2227      H2231   1.408       .  S
C2233      C2234   1.401       .  A
C2233      C2238   1.402       .  A
C2233      H2243   1.083       .  S
C2234      C2239   1.483       .  S
C2234      C2235   1.411       .  A
C2235      C2236   1.400       .  A
C2235      S2240   1.805       .  S
C2236      C2237   1.410       .  A
C2236      H2241   1.083       .  S
C2237      C2238   1.422       .  A
C2238      S2242   1.801       .  S
C2239      C2244   1.412       .  A
C2239      C2248   1.399       .  A
S2240      H2256   1.405       .  S
S2242      H2253   1.407       .  S
C2244      C2245   1.409       .  A
C2244      S2249   1.804       .  S
C2245      C2246   1.404       .  A
C2245      H2250   1.083       .  S
C2246      C2247   1.415       .  A
C2247      C2248   1.395       .  A
C2247      S2251   1.802       .  S
C2248      H2252   1.085       .  S
S2249      H2254   1.407       .  S
S2251      H2255   1.404   1_545  S
