geometry optimzed in LAMMPS
_audit_creation_date              2020-12-01 
_audit_creation_method            'lammps2cif' 
_symmetry_space_group_name_H-M    'P1' 
_symmetry_Int_Tables_number       1 
_symmetry_cell_setting            triclinic 
loop_ 
_symmetry_equiv_pos_as_xyz 
  x,y,z 
_cell_length_a                    58.18830118 
_cell_length_b                    58.16253055324129 
_cell_length_c                    58.05694563218207 
_cell_angle_alpha                 89.57012131405904 
_cell_angle_beta                  89.47288191277761 
_cell_angle_gamma                 89.93296065288472 
loop_ 
_atom_site_label 
_atom_site_type_symbol 
_atom_site_fract_x 
_atom_site_fract_y 
_atom_site_fract_z 
_atom_site_charge 
C1          C  0.74422874  0.00988302  0.00540892     0.87000
C2          C  0.77037497  0.01450497  0.00647810    -0.53300
C3          C  0.78309963  0.00086140  0.99231154     0.09900
C4          C  0.76892865  0.98375178  0.97870749     0.20800
C5          C  0.73827416  0.01219680  0.97955106    -0.54000
C6          C  0.75143387  0.99845666  0.96547709     0.10000
C7          C  0.74186315  0.98413846  0.01077248    -0.53500
C8          C  0.75478198  0.97037614  0.99678748     0.10600
H9          H  0.77840512  0.02733468  0.01714854     0.15100
H10         H  0.77990233  0.97269001  0.96792544     0.00800
H11         H  0.72517164  0.02382675  0.97315299     0.15400
H12         H  0.73097369  0.97759011  0.02459076     0.15200
C13         C  0.74035010  0.72985309  0.73835539     0.87000
C14         C  0.73574242  0.75582263  0.73546195    -0.53300
C15         C  0.74985461  0.76946078  0.74827914     0.09900
C16         C  0.76725891  0.75569872  0.76256571     0.20800
C17         C  0.76596753  0.72684568  0.73264259    -0.54000
C18         C  0.78012629  0.74041956  0.74526891     0.10000
C19         C  0.73851519  0.72551732  0.76461177    -0.53500
C20         C  0.75264362  0.73918390  0.77733472     0.10600
H21         H  0.72243028  0.76263358  0.72435131     0.15100
H22         H  0.77892718  0.76638000  0.77269141     0.00800
H23         H  0.77221666  0.71512840  0.71952830     0.15400
H24         H  0.72685606  0.71321642  0.77246172     0.15200
C25         C  0.02195742  0.01091428  0.72038101     0.87000
C26         C  0.02359828  0.98490347  0.71521568    -0.53300
C27         C  0.01153406  0.97132221  0.73053765     0.09900
C28         C  0.99906098  0.98509576  0.74935509     0.20800
C29         C  0.99602052  0.01593727  0.72109332    -0.54000
C30         C  0.98387313  0.00235693  0.73621346     0.10000
C31         C  0.02978400  0.01308263  0.74547685    -0.53500
C32         C  0.01791793  0.99943668  0.76049858     0.10600
H33         H  0.03342381  0.97783223  0.70101780     0.15100
H34         H  0.98948013  0.97464726  0.76212230     0.00800
H35         H  0.98815351  0.02904659  0.71036087     0.15400
H36         H  0.04371032  0.02419613  0.75084366     0.15200
C37         C  0.24373442  0.24098622  0.72846608     0.87000
C38         C  0.26965666  0.23616886  0.72525423    -0.53300
C39         C  0.28345084  0.24884411  0.73932147     0.09900
C40         C  0.26989410  0.26498802  0.75524634     0.20800
C41         C  0.23889897  0.23709939  0.75423956    -0.54000
C42         C  0.25274740  0.24958629  0.76809025     0.10000
C43         C  0.24132830  0.26725363  0.72503329    -0.53500
C44         C  0.25508247  0.27982982  0.73922112     0.10600
H45         H  0.27628433  0.22388493  0.71288390     0.15100
H46         H  0.28050882  0.27494102  0.76729330     0.00800
H47         H  0.22590319  0.22536378  0.76092552     0.15400
H48         H  0.22981758  0.27525027  0.71279586     0.15200
O49         O  0.49383464  0.25556625  0.79529459    -0.78000
C50         C  0.51256126  0.30579982  0.74136774     0.83000
O51         O  0.45686397  0.22717152  0.72724109    -0.79100
O52         O  0.52308603  0.25613965  0.68746593    -0.80600
O53         O  0.56416810  0.22954711  0.75832631    -0.80400
O54         O  0.52154323  0.22915855  0.79659032    -0.79000
Zn55       Zn  0.49005558  0.26175462  0.76066642     1.55700
O56         O  0.56482824  0.25277040  0.72754201    -0.80400
Cd57       Cd  0.52940517  0.22229219  0.76291562     1.59700
Cd58       Cd  0.49161126  0.22063407  0.72204008     1.59600
O59         O  0.52277019  0.18736098  0.75892812    -0.80400
O60         O  0.50993022  0.24155073  0.74218533    -1.90900
Cd61       Cd  0.53060681  0.26035660  0.72187734     1.59900
O62         O  0.49752144  0.18613846  0.73024773    -0.80400
O63         O  0.52648724  0.29477053  0.72853918    -0.79000
C64         C  0.44615697  0.24167564  0.73976140     0.83500
C65         C  0.50715626  0.24225476  0.80659851     0.83100
O66         O  0.49771688  0.29556535  0.75413578    -0.78000
C67         C  0.57507538  0.24142885  0.74326928     0.84000
O68         O  0.45668788  0.25576413  0.75269894    -0.78100
C69         C  0.50974974  0.17614392  0.74549260     0.84100
C70         C  0.51059532  0.24190207  0.67671462     0.84400
O71         O  0.49868554  0.22658214  0.68718147    -0.80500
C72         C  0.52163052  0.50796748  0.72329391     0.87000
C73         C  0.49544413  0.51083647  0.72015469    -0.53300
C74         C  0.48247743  0.49751922  0.73484747     0.09900
C75         C  0.49698246  0.48263032  0.75115041     0.20800
C76         C  0.52557360  0.51290832  0.74907222    -0.54000
C77         C  0.51279198  0.49930178  0.76351941     0.10000
C78         C  0.52590070  0.48186693  0.72080165    -0.53500
C79         C  0.51280637  0.46854118  0.73538426     0.10600
H80         H  0.48786462  0.52242442  0.70768350     0.15100
H81         H  0.48685674  0.47228491  0.76355535     0.00800
H82         H  0.53794696  0.52531966  0.75527799     0.15400
H83         H  0.53801828  0.47476439  0.70843910     0.15200
C84         C  0.52111356  0.22322715  0.00858595     0.87000
C85         C  0.52303674  0.21984811  0.98221150    -0.53300
C86         C  0.50876010  0.23377655  0.96965395     0.09900
C87         C  0.49385336  0.24959980  0.98473525     0.20800
C88         C  0.52546280  0.24903314  0.01188223    -0.54000
C89         C  0.51092000  0.26267664  0.99959788     0.10000
C90         C  0.49539458  0.21977780  0.01421305    -0.53500
C91         C  0.48130277  0.23361938  0.00154259     0.10600
H92         H  0.53484813  0.20795393  0.97411406     0.15100
H93         H  0.48204563  0.26111270  0.97520223     0.00800
H94         H  0.53833511  0.25587962  0.02338992     0.15400
H95         H  0.48897622  0.20752960  0.02692405     0.15200
O96         O  0.76364617  0.79709993  0.98997174    -0.78000
C97         C  0.81314154  0.74311743  0.00492585     0.83000
O98         O  0.73629467  0.72986378  0.95099823    -0.79100
O99         O  0.76215374  0.68894038  0.02010323    -0.80600
O100        O  0.73558721  0.75966636  0.05890786    -0.80400
O101        O  0.73609869  0.79852426  0.01681845    -0.79000
Zn102      Zn  0.76920251  0.76323393  0.98449184     1.55700
O103        O  0.76148978  0.73132154  0.05936726    -0.80400
Cd104      Cd  0.72952427  0.76451045  0.02389162     1.59700
Cd105      Cd  0.73048454  0.72393395  0.98541461     1.59600
O106        O  0.69519606  0.75911885  0.01629062    -0.80400
O107        O  0.74972874  0.74429746  0.00459101    -1.90900
Cd108      Cd  0.76813051  0.72387608  0.02531442     1.59900
O109        O  0.69612238  0.72958486  0.99189673    -0.80400
O110        O  0.80261426  0.72982577  0.01901769    -0.79000
C111        C  0.74986029  0.74330560  0.94016027     0.83500
C112        C  0.75012091  0.80839764  0.00304894     0.83100
O113        O  0.80252544  0.75643991  0.99108764    -0.78000
C114        C  0.74880442  0.74589546  0.06972362     0.84000
O115        O  0.76324006  0.75699017  0.95061847    -0.78100
C116        C  0.68514279  0.74448413  0.00363324     0.84100
C117        C  0.75050401  0.67877370  0.00474707     0.84400
O118        O  0.73812323  0.68976407  0.99046954    -0.80500
C119        C  0.89712579  0.35337140  0.88724738     0.87000
C120        C  0.88229424  0.37174040  0.89923080    -0.53300
C121        C  0.86938305  0.38475595  0.88456402     0.09900
C122        C  0.87259554  0.37839146  0.85897998     0.20800
C123        C  0.88014995  0.33947555  0.87301414    -0.54000
C124        C  0.86732595  0.35235505  0.85808951     0.10000
C125        C  0.91147783  0.36682409  0.86948670    -0.53500
C126        C  0.89882004  0.38011139  0.85478683     0.10600
H127        H  0.88183396  0.37451359  0.91765953     0.15100
H128        H  0.86219812  0.38903421  0.84699705     0.00800
H129        H  0.87865930  0.32089991  0.87443031     0.15400
H130        H  0.93014108  0.36634847  0.86902822     0.15200
C131        C  0.98990144  0.48051133  0.76205572     0.87000
C132        C  0.01569936  0.47833322  0.76759142    -0.53300
C133        C  0.02947416  0.49109886  0.75336932     0.09900
C134        C  0.01655169  0.50525552  0.73545938     0.20800
C135        C  0.98493958  0.50656069  0.76322578    -0.54000
C136        C  0.99923642  0.51938352  0.74943199     0.10000
C137        C  0.98817210  0.47469480  0.73628196    -0.53500
C138        C  0.00202077  0.48779298  0.72222721     0.10600
H139        H  0.02247386  0.46721682  0.78102871     0.15100
H140        H  0.02819483  0.51599633  0.72470175     0.00800
H141        H  0.97227991  0.51435754  0.77455158     0.15400
H142        H  0.97672510  0.46153358  0.72988919     0.15200
C143        C  0.77128611  0.48021929  0.97245397     0.87000
C144        C  0.77747147  0.47382927  0.99753487    -0.53300
C145        C  0.76507524  0.48565123  0.01364524     0.09900
C146        C  0.74770898  0.50251025  0.00350901     0.20800
C147        C  0.74508206  0.47640432  0.97110215    -0.54000
C148        C  0.73266150  0.48828040  0.98729822     0.10000
C149        C  0.77409002  0.50655855  0.97102854    -0.53500
C150        C  0.76185020  0.51807327  0.98751607     0.10600
H151        H  0.79068223  0.46144045  0.00207992     0.15100
H152        H  0.73806567  0.51205970  0.01693804     0.00800
H153        H  0.73704701  0.46585022  0.95820077     0.15400
H154        H  0.78503814  0.51521878  0.95845056     0.15200
C155        C  0.23769438  0.00043910  0.51934020     0.87000
C156        C  0.23190864  0.00522481  0.49388905    -0.53300
C157        C  0.24425548  0.99208813  0.47886312     0.09900
C158        C  0.26095547  0.97540786  0.49030176     0.20800
C159        C  0.23398492  0.97439505  0.52258077    -0.54000
C160        C  0.24622420  0.96118520  0.50730777     0.10000
C161        C  0.26407691  0.00358314  0.52054049    -0.53500
C162        C  0.27622136  0.99043365  0.50528315     0.10600
H163        H  0.21984092  0.01832833  0.48827636     0.15100
H164        H  0.27062647  0.96541138  0.47736987     0.00800
H165        H  0.22267223  0.96723505  0.53574279     0.15400
H166        H  0.27257557  0.01519013  0.53211124     0.15200
C167        C  0.15165116  0.14029744  0.63853934     0.87000
C168        C  0.13926337  0.15187085  0.61828238    -0.53300
C169        C  0.12732927  0.13705052  0.60477185     0.09900
C170        C  0.12923837  0.11166542  0.61245777     0.20800
C171        C  0.13286891  0.12670760  0.65135282    -0.54000
C172        C  0.12116864  0.11163308  0.63785266     0.10000
C173        C  0.16687587  0.12199588  0.62716247    -0.53500
C174        C  0.15540976  0.10690611  0.61332417     0.10600
H175        H  0.13920792  0.17020692  0.61496696     0.15100
H176        H  0.11942376  0.09973328  0.60145972     0.00800
H177        H  0.12941993  0.12861986  0.66965604     0.15400
H178        H  0.18528786  0.12147499  0.62978333     0.15200
C179        C  0.01427772  0.72729817  0.99957354     0.87000
C180        C  0.01581144  0.72339980  0.97340981    -0.53300
C181        C  0.00247212  0.73814773  0.96077509     0.09900
C182        C  0.98859845  0.75506741  0.97572920     0.20800
C183        C  0.02030145  0.75279757  0.00261972    -0.54000
C184        C  0.00671114  0.76722699  0.99015679     0.10000
C185        C  0.98856739  0.72545397  0.00541646    -0.53500
C186        C  0.97500450  0.74008445  0.99305127     0.10600
H187        H  0.02671670  0.71052614  0.96555186     0.15100
H188        H  0.97799025  0.76730559  0.96580801     0.00800
H189        H  0.03376697  0.75887965  0.01388106     0.15400
H190        H  0.98194584  0.71380208  0.01855102     0.15200
C191        C  0.24194685  0.52335306  0.01366083     0.87000
C192        C  0.23813957  0.49711739  0.01473231    -0.53300
C193        C  0.25319144  0.48504466  0.00138468     0.09900
C194        C  0.27027818  0.49999257  0.98794617     0.20800
C195        C  0.26740476  0.52683974  0.01963886    -0.54000
C196        C  0.28203892  0.51450246  0.00612785     0.10000
C197        C  0.24037470  0.52930562  0.98776274    -0.53500
C198        C  0.25531894  0.51697980  0.97417350     0.10600
H199        H  0.22504199  0.48863462  0.02509443     0.15100
H200        H  0.28258543  0.48973539  0.97762542     0.00800
H201        H  0.27327564  0.53787705  0.03339496     0.15400
H202        H  0.22846999  0.54196592  0.98096350     0.15200
C203        C  0.23332594  0.72750074  0.23033917     0.87000
C204        C  0.23099524  0.75386079  0.22757393    -0.53300
C205        C  0.24686463  0.76596944  0.23954819     0.09900
C206        C  0.26342836  0.75102200  0.25339990     0.20800
C207        C  0.25850251  0.72228695  0.22361973    -0.54000
C208        C  0.27412115  0.73456029  0.23589607     0.10000
C209        C  0.23215450  0.72337255  0.25657661    -0.53500
C210        C  0.24776970  0.73597729  0.26876618     0.10600
H211        H  0.21836301  0.76247600  0.21697440     0.15100
H212        H  0.27644930  0.76109454  0.26282100     0.00800
H213        H  0.26350041  0.70985315  0.21063949     0.15400
H214        H  0.21955928  0.71209228  0.26464002     0.15200
C215        C  0.10838052  0.63911887  0.10029468     0.87000
C216        C  0.12028618  0.65427861  0.11813847    -0.53300
C217        C  0.13398496  0.64246274  0.13327439     0.09900
C218        C  0.13427555  0.61621985  0.12901835     0.20800
C219        C  0.12811761  0.62606987  0.08863832    -0.54000
C220        C  0.14167796  0.61407842  0.10349086     0.10000
C221        C  0.09539304  0.62099883  0.11444703    -0.53500
C222        C  0.10869634  0.60905766  0.12963024     0.10600
H223        H  0.11830608  0.67281521  0.11821208     0.15100
H224        H  0.14520626  0.60622448  0.14103812     0.00800
H225        H  0.13162156  0.62634328  0.07028306     0.15400
H226        H  0.07700407  0.61827081  0.11292175     0.15200
C227        C  0.51752413  0.72834407  0.51614232     0.87000
C228        C  0.49149117  0.72381673  0.51869011    -0.53300
C229        C  0.47811102  0.73676488  0.50425231     0.09900
C230        C  0.49224338  0.75280175  0.48842394     0.20800
C231        C  0.52295570  0.72454722  0.49042017    -0.54000
C232        C  0.50943871  0.73716443  0.47606226     0.10000
C233        C  0.52013868  0.75465292  0.51926372    -0.53500
C234        C  0.50691498  0.76756427  0.50457873     0.10600
H235        H  0.48442994  0.71155477  0.53102190     0.15100
H236        H  0.48197809  0.76279318  0.47598518     0.00800
H237        H  0.53578485  0.71251108  0.48410960     0.15400
H238        H  0.53173920  0.76233459  0.53148985     0.15200
O239        O  0.26485030  0.75034038  0.44296052    -0.78000
C240        C  0.24599060  0.79902438  0.49746197     0.83000
O241        O  0.30436383  0.72140102  0.50981039    -0.79100
O242        O  0.23683111  0.74918000  0.55113153    -0.80600
O243        O  0.19660503  0.72090900  0.48067271    -0.80400
O244        O  0.23902694  0.72208781  0.44229313    -0.79000
Zn245      Zn  0.26980335  0.75604692  0.47763484     1.55700
O246        O  0.19437607  0.74418467  0.51097070    -0.80400
Cd247      Cd  0.23158255  0.71545097  0.47625092     1.59700
Cd248      Cd  0.26997520  0.71572011  0.51664318     1.59600
O249        O  0.23865255  0.68111535  0.48214953    -0.80400
O250        O  0.25037745  0.73552411  0.49644761    -1.90900
Cd251      Cd  0.22855082  0.75299881  0.51670644     1.59900
O252        O  0.26325403  0.68111102  0.51144249    -0.80400
O253        O  0.23205274  0.78765761  0.51014155    -0.79000
C254        C  0.31489027  0.73651016  0.49777640     0.83500
C255        C  0.25222868  0.73627593  0.43193981     0.83100
O256        O  0.26102667  0.78922189  0.48468536    -0.78000
C257        C  0.18488977  0.73221682  0.49537301     0.84000
O258        O  0.30405064  0.75100757  0.48521691    -0.78100
C259        C  0.25118077  0.67053275  0.49665587     0.84100
C260        C  0.25249660  0.73797218  0.56153907     0.84400
O261        O  0.26599958  0.72428020  0.55100684    -0.80500
O262        O  0.30965669  0.49207978  0.75886520    -0.78000
C263        C  0.25677263  0.50929485  0.81161181     0.83000
O264        O  0.24214342  0.45187406  0.73705109    -0.79100
O265        O  0.20107493  0.51911550  0.76147264    -0.80600
O266        O  0.26847311  0.55919901  0.73042737    -0.80400
O267        O  0.30925131  0.51717196  0.72962154    -0.79000
Zn268      Zn  0.27605437  0.48708553  0.76748450     1.55700
O269        O  0.24245328  0.56004540  0.75896803    -0.80400
Cd270      Cd  0.27463690  0.52455355  0.72540539     1.59700
Cd271      Cd  0.23588111  0.48540480  0.72873431     1.59600
O272        O  0.26704965  0.51780373  0.69130772    -0.80400
O273        O  0.25601045  0.50545414  0.74743004    -1.90900
Cd274      Cd  0.23571669  0.52587509  0.76634249     1.59900
O275        O  0.24246024  0.48855852  0.69380099    -0.80400
O276        O  0.24208600  0.52133004  0.80079282    -0.79000
C277        C  0.25622195  0.44177313  0.75033334     0.83500
C278        C  0.32004919  0.50392310  0.74340314     0.83100
O279        O  0.27075723  0.49584190  0.80122242    -0.78000
C280        C  0.25551645  0.57014434  0.74436416     0.84000
O281        O  0.27004948  0.45282203  0.76310902    -0.78100
C282        C  0.25471449  0.50247251  0.68196705     0.84100
C283        C  0.19064968  0.50511448  0.74841839     0.84400
O284        O  0.20140683  0.49173463  0.73480098    -0.80500
O285        O  0.99221274  0.75905446  0.78668455    -0.78000
C286        C  0.00718999  0.80874677  0.73164192     0.83000
O287        O  0.95271569  0.72920694  0.72154510    -0.79100
O288        O  0.01928166  0.75683270  0.67922596    -0.80600
O289        O  0.06235142  0.73538733  0.74927742    -0.80400
O290        O  0.01997539  0.73262526  0.78796806    -0.79000
Zn291      Zn  0.98700156  0.76469764  0.75256422     1.55700
O292        O  0.06238226  0.75812681  0.71822437    -0.80400
Cd293      Cd  0.02804759  0.72670220  0.75402598     1.59700
Cd294      Cd  0.98741549  0.72393046  0.71598464     1.59600
O295        O  0.02374503  0.69184263  0.74864707    -0.80400
O296        O  0.00713137  0.74515211  0.73413686    -1.90900
Cd297      Cd  0.02727812  0.76368703  0.71296607     1.59900
O298        O  0.99361607  0.69037952  0.72515069    -0.80400
O299        O  0.02097037  0.79818532  0.71821476    -0.79000
C300        C  0.94233649  0.74381985  0.73406372     0.83500
C301        C  0.00561577  0.74583012  0.79793921     0.83100
O302        O  0.99355293  0.79813170  0.74535946    -0.78000
C303        C  0.07299053  0.74740484  0.73416173     0.84000
O304        O  0.95329184  0.75828379  0.74617100    -0.78100
C305        C  0.00859487  0.68062272  0.73771380     0.84100
C306        C  0.00570464  0.74266454  0.66972971     0.84400
O307        O  0.99327967  0.72861548  0.68124659    -0.80500
C308        C  0.27251252  0.77054417  0.76021239     0.87000
C309        C  0.27598632  0.74444859  0.76258429    -0.53300
C310        C  0.26423546  0.73194812  0.74672498     0.09900
C311        C  0.25014902  0.74659996  0.72993365     0.20800
C312        C  0.27904716  0.77626091  0.73499046    -0.54000
C313        C  0.26734146  0.76353531  0.71933430     0.10000
C314        C  0.24610747  0.77373542  0.76140526    -0.53500
C315        C  0.23452424  0.76123505  0.74536984     0.10600
H316        H  0.28658654  0.73658248  0.77578381     0.15100
H317        H  0.24062924  0.73638535  0.71703974     0.00800
H318        H  0.29169567  0.78911960  0.72999816     0.15400
H319        H  0.23729397  0.78492244  0.77346266     0.15200
O320        O  0.51319767  0.73200962  0.19527620    -0.78000
C321        C  0.56395770  0.74627820  0.24822284     0.83000
O322        O  0.48720131  0.69101238  0.26376777    -0.79100
O323        O  0.51414316  0.75739792  0.30356225    -0.80600
O324        O  0.48583801  0.79999739  0.23659091    -0.80400
O325        O  0.48739626  0.76035858  0.19507301    -0.79000
Zn326      Zn  0.51959056  0.72596342  0.22924760     1.55700
O327        O  0.51269226  0.79942028  0.26377109    -0.80400
Cd328      Cd  0.48010626  0.76550619  0.22960538     1.59700
Cd329      Cd  0.47994673  0.72548070  0.26926383     1.59600
O330        O  0.44557541  0.75760622  0.23447776    -0.80400
O331        O  0.49995153  0.74512655  0.24894092    -1.90900
Cd332      Cd  0.51914800  0.76490909  0.26906813     1.59900
O333        O  0.44557018  0.73012710  0.26152573    -0.80400
O334        O  0.55329136  0.75965532  0.26187131    -0.79000
C335        C  0.50074792  0.68093204  0.24971170     0.83500
C336        C  0.50040470  0.74621186  0.18449265     0.83100
O337        O  0.55342335  0.73254314  0.23493888    -0.78000
C338        C  0.49937854  0.81029472  0.25023076     0.84000
O339        O  0.51378364  0.69213423  0.23587230    -0.78100
C340        C  0.43502479  0.74312254  0.24733742     0.84100
C341        C  0.49978210  0.74470482  0.31434729     0.84400
O342        O  0.48502735  0.73246996  0.30392638    -0.80500
C343        C  0.36409837  0.88961030  0.89262851     0.87000
C344        C  0.37944330  0.87373297  0.90690455    -0.53300
C345        C  0.39160178  0.85791093  0.89443243     0.09900
C346        C  0.38746505  0.85984247  0.86809385     0.20800
C347        C  0.38025159  0.90061088  0.87469741    -0.54000
C348        C  0.39249747  0.88530139  0.86178455     0.10000
C349        C  0.34904570  0.87334595  0.87868584    -0.53500
C350        C  0.36096781  0.85764632  0.86573204     0.10600
H351        H  0.38027585  0.87486625  0.92553266     0.15100
H352        H  0.39736133  0.84726530  0.85767622     0.00800
H353        H  0.38185716  0.91896503  0.87188636     0.15400
H354        H  0.33045166  0.87466593  0.87886781     0.15200
C355        C  0.49072674  0.97403715  0.76485732     0.87000
C356        C  0.48578649  0.97223933  0.73882265    -0.53300
C357        C  0.49904803  0.98641510  0.72534114     0.09900
C358        C  0.51545272  0.00156643  0.73906931     0.20800
C359        C  0.51694605  0.96995341  0.76672434    -0.54000
C360        C  0.52974495  0.98463619  0.75331226     0.10000
C361        C  0.48748763  0.99982500  0.77040433    -0.53500
C362        C  0.50019796  0.01416954  0.75658012     0.10600
H363        H  0.47355103  0.96019342  0.73170520     0.15100
H364        H  0.52600498  0.01333844  0.72814708     0.00800
H365        H  0.52484931  0.95726084  0.77789143     0.15400
H366        H  0.47541307  0.00614353  0.78325712     0.15200
C367        C  0.48408500  0.75435224  0.98213721     0.87000
C368        C  0.48069363  0.75642844  0.00853037    -0.53300
C369        C  0.49552758  0.74325154  0.02122794     0.09900
C370        C  0.51219456  0.72919049  0.00628168     0.20800
C371        C  0.50961079  0.76027872  0.97818073    -0.54000
C372        C  0.52417841  0.74684341  0.99067062     0.10000
C373        C  0.48228762  0.72834269  0.97739805    -0.53500
C374        C  0.49693968  0.71505592  0.99025097     0.10600
H375        H  0.46806073  0.76759209  0.01646308     0.15100
H376        H  0.52472694  0.71907451  0.01629343     0.00800
H377        H  0.51563848  0.77352520  0.96631719     0.15400
H378        H  0.47026263  0.72123380  0.96518588     0.15200
C379        C  0.73400289  0.51242891  0.50776349     0.87000
C380        C  0.73359871  0.51681237  0.48152604    -0.53300
C381        C  0.74838854  0.50316840  0.46914883     0.09900
C382        C  0.76239251  0.48666191  0.48434468     0.20800
C383        C  0.72927391  0.48644247  0.51039393    -0.54000
C384        C  0.74441023  0.47308170  0.49828366     0.10000
C385        C  0.75950888  0.51521386  0.51446964    -0.53500
C386        C  0.77425759  0.50199129  0.50187398     0.10600
H387        H  0.72242309  0.52948962  0.47359858     0.15100
H388        H  0.77453292  0.47540187  0.47486300     0.00800
H389        H  0.71589861  0.47910209  0.52128434     0.15400
H390        H  0.76544734  0.52731432  0.52726110     0.15200
O391        O  0.76915321  0.44295145  0.25343553    -0.78000
C392        C  0.82149893  0.49582797  0.23994576     0.83000
O393        O  0.74290593  0.50853240  0.29562136    -0.79100
O394        O  0.77127285  0.55128642  0.23021809    -0.80600
O395        O  0.74547742  0.48410921  0.18598350    -0.80400
O396        O  0.74200934  0.44400813  0.22648575    -0.79000
Zn397      Zn  0.77659009  0.47636690  0.26062609     1.55700
O398        O  0.77145704  0.51220924  0.18628187    -0.80400
Cd399      Cd  0.73726513  0.47852025  0.22035808     1.59700
Cd400      Cd  0.73707458  0.51527009  0.26155184     1.59600
O401        O  0.70277225  0.48610515  0.22558946    -0.80400
O402        O  0.75743223  0.49641823  0.24131219    -1.90900
Cd403      Cd  0.77682074  0.51720098  0.22151022     1.59900
O404        O  0.70280304  0.50895922  0.25625580    -0.80400
O405        O  0.81102699  0.51025938  0.22718921    -0.79000
C406        C  0.75680689  0.49539243  0.30615851     0.83500
C407        C  0.75541262  0.43289969  0.23974073     0.83100
O408        O  0.81069092  0.48190829  0.25328410    -0.78000
C409        C  0.75901945  0.49789371  0.17545147     0.84000
O410        O  0.77077694  0.48227403  0.29529922    -0.78100
C411        C  0.69224462  0.49760326  0.24102614     0.84100
C412        C  0.75734157  0.56101232  0.24416352     0.84400
O413        O  0.74306409  0.54975307  0.25654427    -0.80500
C414        C  0.73337430  0.23221249  0.22623598     0.87000
C415        C  0.75892828  0.22555421  0.22267853    -0.53300
C416        C  0.77373879  0.23838739  0.23535409     0.09900
C417        C  0.76191516  0.25580598  0.25099999     0.20800
C418        C  0.72919403  0.22979425  0.25241225    -0.54000
C419        C  0.74444468  0.24197420  0.26521406     0.10000
C420        C  0.73261086  0.25834682  0.22159620    -0.53500
C421        C  0.74751307  0.27078662  0.23473673     0.10600
H422        H  0.76479988  0.21290626  0.21027816     0.15100
H423        H  0.77424278  0.26523156  0.26183685     0.00800
H424        H  0.71615377  0.21893145  0.26029497     0.15400
H425        H  0.72113483  0.26613244  0.20913993     0.15200
O426        O  0.81047129  0.98562911  0.75418580    -0.78000
C427        C  0.75323624  0.99896881  0.80260040     0.83000
O428        O  0.74503253  0.94170447  0.72766494    -0.79100
O429        O  0.70090524  0.00916945  0.74939160    -0.80600
O430        O  0.77112525  0.05173379  0.72721774    -0.80400
O431        O  0.81044061  0.01091192  0.72513484    -0.79000
Zn432      Zn  0.77635058  0.97830055  0.75976583     1.55700
O433        O  0.74058074  0.05158518  0.75061390    -0.80400
Cd434      Cd  0.77606380  0.01720945  0.71948664     1.59700
Cd435      Cd  0.73807690  0.97549495  0.71982484     1.59600
O436        O  0.76919754  0.01154518  0.68503710    -0.80400
O437        O  0.75671992  0.99656217  0.73928408    -1.90900
Cd438      Cd  0.73482071  0.01680521  0.75656057     1.59900
O439        O  0.74555666  0.98123014  0.68535926    -0.80400
O440        O  0.73922944  0.01141037  0.79128871    -0.79000
C441        C  0.75780191  0.93201757  0.74252542     0.83500
C442        C  0.82111087  0.99862293  0.73981691     0.83100
O443        O  0.76813565  0.98616001  0.79274891    -0.78000
C444        C  0.75625785  0.06228452  0.73945571     0.84000
O445        O  0.77076329  0.94362068  0.75575377    -0.78100
C446        C  0.75756038  0.99628260  0.67464027     0.84100
C447        C  0.69131587  0.99347141  0.73770409     0.84400
O448        O  0.70292060  0.97922458  0.72572773    -0.80500
C449        C  0.77605944  0.26381834  0.75699224     0.87000
C450        C  0.78130413  0.23799926  0.76018809    -0.53300
C451        C  0.76702579  0.22400851  0.74813464     0.09900
C452        C  0.74936323  0.23697551  0.73351664     0.20800
C453        C  0.77750711  0.26780238  0.73067329    -0.54000
C454        C  0.76346453  0.25363342  0.71828266     0.10000
C455        C  0.75031232  0.26632089  0.76298408    -0.53500
C456        C  0.73646696  0.25240510  0.75042269     0.10600
H457        H  0.79446236  0.23139475  0.77162483     0.15100
H458        H  0.73775595  0.22529398  0.72416679     0.00800
H459        H  0.78861875  0.28049823  0.72261008     0.15400
H460        H  0.74362695  0.27859347  0.77537014     0.15200
O461        O  0.74269102  0.19192624  0.50538941    -0.78000
C462        C  0.75564487  0.24831667  0.55550548     0.83000
O463        O  0.70068653  0.25771259  0.47814088    -0.79100
O464        O  0.76911466  0.30103553  0.50208164    -0.80600
O465        O  0.80969743  0.23153119  0.47920959    -0.80400
O466        O  0.76876851  0.19266339  0.47701349    -0.79000
Zn467      Zn  0.73590923  0.22603463  0.51186235     1.55700
O468        O  0.80929549  0.25936047  0.50535798    -0.80400
Cd469      Cd  0.77535586  0.22698377  0.47166443     1.59700
Cd470      Cd  0.73463045  0.26550504  0.47203427     1.59600
O471        O  0.77013175  0.23396975  0.43720479    -0.80400
O472        O  0.75473866  0.24589852  0.49170975    -1.90900
Cd473      Cd  0.77483504  0.26681018  0.50975502     1.59900
O474        O  0.74084598  0.25884223  0.43760318    -0.80400
O475        O  0.76810925  0.26251550  0.54426555    -0.79000
C476        C  0.69042019  0.24406225  0.49201605     0.83500
C477        C  0.75582652  0.18163941  0.49099408     0.83100
O478        O  0.74306268  0.23346386  0.54549751    -0.78000
C479        C  0.82003207  0.24475507  0.49307638     0.84000
O480        O  0.70145206  0.23127472  0.50610256    -0.78100
C481        C  0.75529544  0.24629853  0.42685848     0.84100
C482        C  0.75362508  0.31131951  0.49056399     0.84400
O483        O  0.73891568  0.30039974  0.47872357    -0.80500
C484        C  0.89436801  0.88750261  0.34965460     0.87000
C485        C  0.90899013  0.87002319  0.36274571    -0.53300
C486        C  0.89709381  0.85591701  0.37762831     0.09900
C487        C  0.87084556  0.86118401  0.37801746     0.20800
C488        C  0.87582520  0.87317297  0.33790806    -0.54000
C489        C  0.86351037  0.85938569  0.35257252     0.10000
C490        C  0.88142883  0.90078831  0.36837512    -0.53500
C491        C  0.86891730  0.88729585  0.38321734     0.10600
H492        H  0.92740153  0.86917693  0.36002253     0.15100
H493        H  0.86063570  0.85014347  0.38994900     0.00800
H494        H  0.87245680  0.87370639  0.31959954     0.15400
H495        H  0.88161412  0.91943389  0.36937164     0.15200
C496        C  0.76721243  0.97912873  0.47291232     0.87000
C497        C  0.76999462  0.00540372  0.46859422    -0.53300
C498        C  0.75664526  0.01879935  0.48290050     0.09900
C499        C  0.74206543  0.00464803  0.49992371     0.20800
C500        C  0.77222272  0.97579348  0.49865864    -0.54000
C501        C  0.75915560  0.98929708  0.51264532     0.10000
C502        C  0.74111967  0.97481847  0.47085320    -0.53500
C503        C  0.72811713  0.98843576  0.48489295     0.10600
H504        H  0.78143106  0.01253158  0.45552367     0.15100
H505        H  0.73120151  0.01468171  0.51195257     0.00800
H506        H  0.78513894  0.96400779  0.50522417     0.15400
H507        H  0.73341044  0.96291722  0.45891159     0.15200
C508        C  0.98497441  0.75028734  0.46823707     0.87000
C509        C  0.98003096  0.75644858  0.49356926    -0.53300
C510        C  0.99219534  0.74357972  0.50891063     0.09900
C511        C  0.00848087  0.72617578  0.49792752     0.20800
C512        C  0.01138129  0.75270482  0.46553301    -0.54000
C513        C  0.02347520  0.74014911  0.48126518     0.10000
C514        C  0.98078303  0.72409420  0.46688686    -0.53500
C515        C  0.99333462  0.71138057  0.48240420     0.10600
H516        H  0.96779538  0.76953628  0.49888238     0.15100
H517        H  0.01873946  0.71651353  0.51074275     0.00800
H518        H  0.01996062  0.76346930  0.45281879     0.15400
H519        H  0.96924938  0.71644994  0.45452801     0.15200
C520        C  0.76443846  0.76114873  0.27103023     0.87000
C521        C  0.73812727  0.76364539  0.27309222    -0.53300
C522        C  0.72610478  0.74975628  0.25847310     0.09900
C523        C  0.74170523  0.73485387  0.24316512     0.20800
C524        C  0.76911828  0.73525819  0.27455089    -0.54000
C525        C  0.75702385  0.72169755  0.25996793     0.10000
C526        C  0.76979607  0.76562563  0.24540376    -0.53500
C527        C  0.75780848  0.75191149  0.23098841     0.10600
H528        H  0.72996407  0.77538656  0.28508086     0.15100
H529        H  0.73265908  0.72348673  0.23100585     0.00800
H530        H  0.78070436  0.72806945  0.28722242     0.15400
H531        H  0.78186894  0.77852702  0.23917091     0.15200
C532        C  0.26859843  0.46890182  0.48208181     0.87000
C533        C  0.27229043  0.49438888  0.47562538    -0.53300
C534        C  0.25954085  0.50918988  0.48861741     0.09900
C535        C  0.24418605  0.49749914  0.50668552     0.20800
C536        C  0.27327456  0.46741106  0.50812596    -0.54000
C537        C  0.26056768  0.48253383  0.52090082     0.10000
C538        C  0.24231094  0.46542024  0.48016858    -0.53500
C539        C  0.22940247  0.48049528  0.49299534     0.10600
H540        H  0.28420694  0.50020682  0.46231217     0.15100
H541        H  0.23434226  0.50994745  0.51725903     0.00800
H542        H  0.28575848  0.45576653  0.51569017     0.15400
H543        H  0.23455384  0.45255083  0.46936819     0.15200
O544        O  0.51749956  0.50074070  0.04586984    -0.78000
C545        C  0.56986754  0.48841700  0.99183164     0.83000
O546        O  0.49369414  0.54219478  0.97608544    -0.79100
O547        O  0.51956222  0.47463993  0.93642034    -0.80600
O548        O  0.49079549  0.43432582  0.00425798    -0.80400
O549        O  0.49021603  0.47386760  0.04568434    -0.79000
Zn550      Zn  0.52478320  0.50769975  0.01177280     1.55700
O551        O  0.52043588  0.43452961  0.97951320    -0.80400
Cd552      Cd  0.48482122  0.46870587  0.01079978     1.59700
Cd553      Cd  0.48654812  0.50822457  0.97113247     1.59600
O554        O  0.45066999  0.47629776  0.00470654    -0.80400
O555        O  0.50579198  0.48862648  0.99174051    -1.90900
Cd556      Cd  0.52542492  0.46881237  0.97152321     1.59900
O557        O  0.45189800  0.50404929  0.97798528    -0.80400
O558        O  0.55952418  0.47541180  0.97775579    -0.79000
C559        C  0.50668211  0.55259304  0.99003966     0.83500
C560        C  0.50371847  0.48713392  0.05650850     0.83100
O561        O  0.55893986  0.50139242  0.00580918    -0.78000
C562        C  0.50600949  0.42391901  0.99233505     0.84000
O563        O  0.51897855  0.54177741  0.00470104    -0.78100
C564        C  0.44075415  0.49100409  0.99179985     0.84100
C565        C  0.50675011  0.48907236  0.92593902     0.84400
O566        O  0.49336973  0.50262959  0.93674799    -0.80500
C567        C  0.49192535  0.47849132  0.26037564     0.87000
C568        C  0.48887318  0.47406785  0.23428356    -0.53300
C569        C  0.50250912  0.48763102  0.22031305     0.09900
C570        C  0.51779328  0.50411225  0.23389151     0.20800
C571        C  0.51788842  0.47537337  0.26445396    -0.54000
C572        C  0.53121661  0.48864751  0.25031918     0.10000
C573        C  0.48769802  0.50441840  0.26312385    -0.53500
C574        C  0.50136188  0.51798322  0.24935638     0.10600
H575        H  0.47707600  0.46133583  0.22768519     0.15100
H576        H  0.52925816  0.51484071  0.22310770     0.00800
H577        H  0.52529208  0.46328428  0.27660194     0.15400
H578        H  0.47516333  0.51125748  0.27521498     0.15200
C579        C  0.36470725  0.35240666  0.34816321     0.87000
C580        C  0.37821426  0.37124407  0.33568955    -0.53300
C581        C  0.39074013  0.38501543  0.34981281     0.09900
C582        C  0.38829185  0.37856384  0.37583901     0.20800
C583        C  0.38270543  0.33939497  0.36237258    -0.54000
C584        C  0.39512511  0.35277197  0.37692300     0.10000
C585        C  0.35001706  0.36500777  0.36589228    -0.53500
C586        C  0.36186949  0.37872100  0.38071662     0.10600
H587        H  0.37818444  0.37323730  0.31706642     0.15100
H588        H  0.39840418  0.38967191  0.38743788     0.00800
H589        H  0.38549769  0.32105735  0.36135628     0.15400
H590        H  0.33150816  0.36308885  0.36617011     0.15200
C591        C  0.48979520  0.26265917  0.47546055     0.87000
C592        C  0.48202419  0.23742613  0.47290124    -0.53300
C593        C  0.49401388  0.22225454  0.48616923     0.09900
C594        C  0.51247686  0.23343370  0.50092506     0.20800
C595        C  0.48799983  0.26745169  0.50158684    -0.54000
C596        C  0.49971145  0.25187002  0.51480201     0.10000
C597        C  0.51577374  0.26211283  0.47036898    -0.53500
C598        C  0.52785461  0.24694166  0.48382947     0.10600
H599        H  0.46850468  0.23200138  0.46137691     0.15100
H600        H  0.52172582  0.22087167  0.51190293     0.00800
H601        H  0.47774128  0.28108240  0.50911806     0.15400
H602        H  0.52375590  0.27307995  0.45739694     0.15200
O603        O  0.48979125  0.98021754  0.44275742    -0.78000
C604        C  0.50551189  0.93075297  0.49757597     0.83000
O605        O  0.44835746  0.00870533  0.50858653    -0.79100
O606        O  0.51637345  0.98307621  0.55157665    -0.80600
O607        O  0.55557825  0.01202247  0.48292253    -0.80400
O608        O  0.51530416  0.00875501  0.44200206    -0.79000
Zn609      Zn  0.48345867  0.97445125  0.47709902     1.55700
O610        O  0.55654808  0.98345062  0.50882310    -0.80400
Cd611      Cd  0.52065559  0.01608258  0.47637189     1.59700
Cd612      Cd  0.48198861  0.01449996  0.51684998     1.59600
O613        O  0.51150178  0.05018140  0.48108442    -0.80400
O614        O  0.50181283  0.99508504  0.49637552    -1.90900
Cd615      Cd  0.52260821  0.97678887  0.51671607     1.59900
O616        O  0.48783086  0.04953058  0.51152992    -0.80400
O617        O  0.51839898  0.94205035  0.51100640    -0.79000
C618        C  0.43828576  0.99454781  0.49546506     0.83500
C619        C  0.50273085  0.99424210  0.43168256     0.83100
O620        O  0.49131450  0.94076226  0.48413933    -0.78000
C621        C  0.56660546  0.99778665  0.49549324     0.84000
O622        O  0.44934218  0.98020831  0.48302240    -0.78100
C623        C  0.49897096  0.06045611  0.49589646     0.84100
C624        C  0.50055812  0.99399177  0.56225333     0.84400
O625        O  0.48559979  0.00599383  0.55163043    -0.80500
C626        C  0.52262713  0.01048634  0.22981385     0.87000
C627        C  0.52650609  0.98514174  0.22326008    -0.53300
C628        C  0.51349924  0.97018442  0.23592400     0.09900
C629        C  0.49763113  0.98151810  0.25355308     0.20800
C630        C  0.49651997  0.01435021  0.22738345    -0.54000
C631        C  0.48362713  0.99895707  0.23969976     0.10000
C632        C  0.52676570  0.01123514  0.25599807    -0.53500
C633        C  0.51346706  0.99612857  0.26857225     0.10600
H634        H  0.53878704  0.97953021  0.21026252     0.15100
H635        H  0.48677552  0.96897389  0.26310210     0.00800
H636        H  0.48867260  0.02743544  0.21665222     0.15400
H637        H  0.53889179  0.02297987  0.26371503     0.15200
C638        C  0.02354926  0.51091589  0.23032284     0.87000
C639        C  0.02822299  0.51324918  0.25634821    -0.53300
C640        C  0.01517557  0.49888836  0.26970443     0.09900
C641        C  0.99893558  0.48349642  0.25622981     0.20800
C642        C  0.02718348  0.48525877  0.22514514    -0.54000
C643        C  0.01434347  0.47109266  0.23888665     0.10000
C644        C  0.99733101  0.51455512  0.22810419    -0.53500
C645        C  0.98434035  0.49991150  0.24152452     0.10600
H646        H  0.04008500  0.52538817  0.26380888     0.15100
H647        H  0.98905644  0.47154911  0.26749675     0.00800
H648        H  0.03905338  0.47889982  0.21211719     0.15400
H649        H  0.98994680  0.52712746  0.21642666     0.15200
O650        O  0.05484083  0.49936818  0.50712657    -0.78000
C651        C  0.00031491  0.54865131  0.49192117     0.83000
O652        O  0.98855347  0.47079569  0.54958007    -0.79100
O653        O  0.94657929  0.49874894  0.48185661    -0.80600
O654        O  0.01531427  0.46803574  0.44150913    -0.80400
O655        O  0.05578346  0.47092170  0.48167876    -0.79000
Zn656      Zn  0.02050650  0.50483928  0.51371931     1.55700
O657        O  0.98718804  0.49417675  0.44045213    -0.80400
Cd658      Cd  0.02138343  0.46360291  0.47661841     1.59700
Cd659      Cd  0.98045861  0.46524724  0.51549469     1.59600
O660        O  0.01631178  0.42952766  0.48649728    -0.80400
O661        O  0.00123887  0.48441695  0.49537149    -1.90900
Cd662      Cd  0.98123186  0.50283382  0.47434616     1.59900
O663        O  0.98544044  0.43032394  0.50966211    -0.80400
O664        O  0.98800806  0.53749577  0.47783642    -0.79000
C665        C  0.00216044  0.48479669  0.55926819     0.83500
C666        C  0.06601420  0.48548579  0.49424034     0.83100
O667        O  0.01290694  0.53850381  0.50677267    -0.78000
C668        C  0.00138715  0.48083080  0.43037850     0.84000
O669        O  0.01480508  0.49870089  0.54772863    -0.78100
C670        C  0.00122748  0.41936661  0.49899223     0.84100
C671        C  0.93565775  0.48750144  0.49735043     0.84400
O672        O  0.94589647  0.47415490  0.51148678    -0.80500
C673        C  0.01974676  0.21817497  0.51443024     0.87000
C674        C  0.02225852  0.24373804  0.52081238    -0.53300
C675        C  0.00721413  0.25787215  0.50961165     0.09900
C676        C  0.99122776  0.24538227  0.49307496     0.20800
C677        C  0.99411781  0.21260810  0.51905828    -0.54000
C678        C  0.97944105  0.22706276  0.50789739     0.10000
C679        C  0.02243972  0.21790018  0.48802192    -0.53500
C680        C  0.00732576  0.23202493  0.47686255     0.10600
H681        H  0.03475935  0.25006536  0.53300292     0.15100
H682        H  0.97905533  0.25698557  0.48399117     0.00800
H683        H  0.98793300  0.19896926  0.53031577     0.15400
H684        H  0.03482278  0.20716855  0.47900869     0.15200
C685        C  0.27627718  0.99282272  0.98625872     0.87000
C686        C  0.25057183  0.98847525  0.98207685    -0.53300
C687        C  0.23622988  0.00149016  0.99546321     0.09900
C688        C  0.24905518  0.01763358  0.01168839     0.20800
C689        C  0.27929868  0.01898913  0.98264282    -0.54000
C690        C  0.26495909  0.03199710  0.99607959     0.10000
C691        C  0.27941288  0.98905312  0.01231890    -0.53500
C692        C  0.26510992  0.00214158  0.02571244     0.10600
H693        H  0.24447493  0.97601886  0.96973822     0.15100
H694        H  0.23743533  0.02802307  0.02237428     0.00800
H695        H  0.29164373  0.02655943  0.97078674     0.15400
H696        H  0.29194119  0.97714747  0.01933548     0.15200
O697        O  0.06227346  0.00616208  0.00366672    -0.78000
C698        C  0.01013974  0.05694248  0.98488759     0.83000
O699        O  0.99367939  0.97837498  0.03924616    -0.79100
O700        O  0.95635807  0.00706718  0.96837385    -0.80600
O701        O  0.02832977  0.97934425  0.93321061    -0.80400
O702        O  0.06486412  0.97948802  0.97645400    -0.79000
Zn703      Zn  0.02809264  0.01265731  0.00679426     1.55700
O704        O  0.00234500  0.00753662  0.93086265    -0.80400
Cd705      Cd  0.03129222  0.97334241  0.96816399     1.59700
Cd706      Cd  0.98865058  0.97399731  0.00453316     1.59600
O707        O  0.02525595  0.93911110  0.97478800    -0.80400
O708        O  0.01019657  0.99351224  0.98627250    -1.90900
Cd709      Cd  0.99161902  0.01255005  0.96444908     1.59900
O710        O  0.99369162  0.93964667  0.99696257    -0.80400
O711        O  0.99715371  0.04670229  0.97078286    -0.79000
C712        C  0.00557950  0.99289749  0.05024982     0.83500
C713        C  0.07413868  0.99289884  0.99083301     0.83100
O714        O  0.02274341  0.04607931  0.99914662    -0.78000
C715        C  0.01675483  0.99385894  0.92158555     0.84000
O716        O  0.01883351  0.00719027  0.04003563    -0.78100
C717        C  0.00933543  0.92885290  0.98592743     0.84100
C718        C  0.94507494  0.99615451  0.98389063     0.84400
O719        O  0.95491943  0.98352232  0.99886660    -0.80500
C720        C  0.99005871  0.97996621  0.25178766     0.87000
C721        C  0.01591935  0.97610878  0.25568818    -0.53300
C722        C  0.02980704  0.99049052  0.24302901     0.09900
C723        C  0.01633055  0.00740883  0.22783456     0.20800
C724        C  0.98605752  0.00560457  0.25688103    -0.54000
C725        C  0.99995301  0.02009223  0.24442811     0.10000
C726        C  0.98706866  0.97788898  0.22555263    -0.53500
C727        C  0.00085946  0.99228762  0.21294495     0.10600
H728        H  0.02243665  0.96298366  0.26729046     0.15100
H729        H  0.02742818  0.01895444  0.21764547     0.00800
H730        H  0.97363124  0.01155070  0.26955605     0.15400
H731        H  0.97522336  0.96612526  0.21760783     0.15200
C732        C  0.99081520  0.25819300  0.98288222     0.87000
C733        C  0.98555721  0.25977393  0.00890806    -0.53300
C734        C  0.99930480  0.24623349  0.02224782     0.09900
C735        C  0.01692814  0.23233819  0.00834869     0.20800
C736        C  0.01656946  0.26378183  0.98056390    -0.54000
C737        C  0.03036735  0.25023249  0.99397003     0.10000
C738        C  0.98901360  0.23242353  0.97752198    -0.53500
C739        C  0.00280579  0.21878167  0.99080519     0.10600
H740        H  0.97209453  0.27027620  0.01635134     0.15100
H741        H  0.02788574  0.22160610  0.01936577     0.00800
H742        H  0.02307868  0.27726168  0.96926846     0.15400
H743        H  0.97790046  0.22575817  0.96424281     0.15200
O744        O  0.24434246  0.20438665  0.00577792    -0.78000
C745        C  0.25685524  0.25704264  0.05768839     0.83000
O746        O  0.20280672  0.27325313  0.98215702    -0.79100
O747        O  0.27338805  0.31243404  0.00561284    -0.80600
O748        O  0.31047358  0.24329909  0.98029965    -0.80400
O749        O  0.26924016  0.20515795  0.97642827    -0.79000
Zn750      Zn  0.23760222  0.23785132  0.01290150     1.55700
O751        O  0.31106391  0.26865318  0.00888067    -0.80400
Cd752      Cd  0.27618141  0.23964071  0.97289023     1.59700
Cd753      Cd  0.23685409  0.27901207  0.97490907     1.59600
O754        O  0.27103468  0.24863389  0.93911494    -0.80400
O755        O  0.25650877  0.25824721  0.99386795    -1.90900
Cd756      Cd  0.27691578  0.27766105  0.01317850     1.59900
O757        O  0.24137415  0.27297995  0.94008157    -0.80400
O758        O  0.26926504  0.27205258  0.04746030    -0.79000
C759        C  0.19265922  0.25836957  0.99476104     0.83500
C760        C  0.25684335  0.19415714  0.99089255     0.83100
O761        O  0.24435347  0.24292568  0.04670262    -0.78000
C762        C  0.32127554  0.25498313  0.99513525     0.84000
O763        O  0.20369431  0.24389437  0.00706504    -0.78100
C764        C  0.25612917  0.26108096  0.92906020     0.84100
C765        C  0.25892441  0.32338310  0.99334276     0.84400
O766        O  0.24384214  0.31321761  0.98135597    -0.80500
O767        O  0.24178242  0.04439450  0.23996803    -0.78000
C768        C  0.25842749  0.99265490  0.18827989     0.83000
O769        O  0.20248728  0.97705355  0.26575116    -0.79100
O770        O  0.27200988  0.93737373  0.24008836    -0.80600
O771        O  0.31139456  0.00702889  0.26422851    -0.80400
O772        O  0.26920181  0.04554463  0.26649648    -0.79000
Zn773      Zn  0.23727463  0.01082988  0.23282519     1.55700
O774        O  0.31187779  0.97842239  0.23886524    -0.80400
Cd775      Cd  0.27681963  0.01136917  0.27195793     1.59700
Cd776      Cd  0.23700664  0.97178071  0.27216465     1.59600
O777        O  0.27103714  0.00443972  0.30665240    -0.80400
O778        O  0.25690465  0.99173588  0.25222590    -1.90900
Cd779      Cd  0.27746874  0.97182235  0.23311816     1.59900
O780        O  0.24235380  0.97894590  0.30641129    -0.80400
O781        O  0.27130132  0.97820806  0.19861403    -0.79000
C782        C  0.19235127  0.99001953  0.25128293     0.83500
C783        C  0.25484205  0.05553307  0.25338011     0.83100
O784        O  0.24500908  0.00615696  0.19918193    -0.78000
C785        C  0.32219925  0.99315927  0.25113622     0.84000
O786        O  0.20350589  0.00338775  0.23776636    -0.78100
C787        C  0.25632877  0.99178769  0.31710142     0.84100
C788        C  0.25777455  0.92680276  0.25315098     0.84400
O789        O  0.24357025  0.93733178  0.26617094    -0.80500
O790        O  0.01420397  0.23226501  0.19655509    -0.78000
C791        C  0.06381119  0.24628881  0.25153652     0.83000
O792        O  0.98425285  0.19300231  0.26444919    -0.79100
O793        O  0.01315738  0.25610284  0.30427476    -0.80600
O794        O  0.98873888  0.30073458  0.23536201    -0.80400
O795        O  0.98897789  0.26111812  0.19505474    -0.79000
Zn796      Zn  0.01955056  0.22648166  0.23096068     1.55700
O797        O  0.01209669  0.29983574  0.26562888    -0.80400
Cd798      Cd  0.98117258  0.26691679  0.22925183     1.59700
Cd799      Cd  0.97778700  0.22748395  0.26909790     1.59600
O800        O  0.94612679  0.26203838  0.23399596    -0.80400
O801        O  0.99950490  0.24607937  0.24952018    -1.90900
Cd802      Cd  0.01846387  0.26518929  0.27039076     1.59900
O803        O  0.94408369  0.23302523  0.25935308    -0.80400
O804        O  0.05294819  0.26011612  0.26454494    -0.79000
C805        C  0.99883606  0.18238779  0.25197839     0.83500
C806        C  0.00206161  0.24660785  0.18514140     0.83100
O807        O  0.05337605  0.23261499  0.23807931    -0.78000
C808        C  0.00082392  0.31080424  0.25036933     0.84000
O809        O  0.01294510  0.19297278  0.23868742    -0.78100
C810        C  0.93460918  0.24735766  0.24570760     0.84100
C811        C  0.99803303  0.24416583  0.31482014     0.84400
O812        O  0.98210566  0.23364697  0.30422247    -0.80500
C813        C  0.26597991  0.25714307  0.25989794     0.87000
C814        C  0.27022652  0.26130206  0.23405153    -0.53300
C815        C  0.25705995  0.24792555  0.22014405     0.09900
C816        C  0.24075419  0.23177306  0.23353270     0.20800
C817        C  0.23996716  0.26078833  0.26344972    -0.54000
C818        C  0.22664249  0.24733712  0.24963219     0.10000
C819        C  0.26951508  0.23105056  0.26331952    -0.53500
C820        C  0.25627023  0.21773601  0.24953096     0.10600
H821        H  0.28281678  0.27352341  0.22753431     0.15100
H822        H  0.23003316  0.22122714  0.22230830     0.00800
H823        H  0.23293056  0.27259212  0.27606590     0.15400
H824        H  0.28111339  0.22356444  0.27569978     0.15200
C825        C  0.64928252  0.10038617  0.10482437     0.87000
C826        C  0.63410148  0.08788586  0.12241088    -0.53300
C827        C  0.61943193  0.10179210  0.13438038     0.09900
C828        C  0.62129066  0.12753995  0.12752303     0.20800
C829        C  0.63264827  0.11369553  0.08953264    -0.54000
C830        C  0.61791800  0.12812866  0.10098229     0.10000
C831        C  0.66153143  0.11909211  0.11871144    -0.53500
C832        C  0.64706598  0.13328411  0.13072553     0.10600
H833        H  0.63491464  0.06940127  0.12513679     0.15100
H834        H  0.60948933  0.13894865  0.13730742     0.00800
H835        H  0.63327672  0.11198683  0.07097713     0.15400
H836        H  0.68001564  0.12102084  0.11944949     0.15200
C837        C  0.64925375  0.63711219  0.63871327     0.87000
C838        C  0.63127818  0.65188244  0.62644540    -0.53300
C839        C  0.61695105  0.64005870  0.61214070     0.09900
C840        C  0.62219123  0.61385695  0.61157053     0.20800
C841        C  0.63526878  0.61820088  0.65101435    -0.54000
C842        C  0.62107624  0.60604682  0.63705727     0.10000
C843        C  0.66199639  0.62457846  0.61928726    -0.53500
C844        C  0.64809008  0.61213109  0.60514419     0.10600
H845        H  0.63033576  0.67033912  0.62884436     0.15100
H846        H  0.61079576  0.60385440  0.60015659     0.00800
H847        H  0.63612608  0.61448120  0.66926311     0.15400
H848        H  0.68058465  0.62488926  0.61743648     0.15200
C849        C  0.16582972  0.25554023  0.25837540     0.20800
C850        C  0.14566516  0.26607403  0.26663852    -0.39100
C851        C  0.12493655  0.25589803  0.25981423     0.19800
C852        C  0.12435702  0.23672537  0.24583968     0.22400
C853        C  0.14448775  0.22614381  0.23772798    -0.39600
C854        C  0.16515525  0.23633508  0.24451247     0.21200
N855        N  0.18769098  0.26199925  0.26207487    -0.32900
C856        C  0.20107573  0.24678414  0.25042924    -0.10400
C857        C  0.18748558  0.23049744  0.23933503    -0.29200
N858        N  0.10257802  0.23074544  0.24121881    -0.45800
C859        C  0.08912964  0.24623241  0.25229534    -0.05100
C860        C  0.10245673  0.26209785  0.26423192    -0.22500
H861        H  0.14607370  0.28118931  0.27738757     0.19300
H862        H  0.14409180  0.21121896  0.22671355     0.18100
H863        H  0.19291173  0.21610457  0.22893998     0.14400
H864        H  0.09649216  0.27646860  0.27441763     0.14300
H865        H  0.19304467  0.27602470  0.27176708     0.32500
H866        H  0.09720387  0.21709633  0.23099838     0.35200
C867        C  0.26120370  0.11577677  0.26199347     0.20800
C868        C  0.27092203  0.13580819  0.27096926    -0.39100
C869        C  0.26322506  0.15646770  0.26116418     0.19800
C870        C  0.24706438  0.15710282  0.24386327     0.22400
C871        C  0.23720128  0.13709614  0.23501580    -0.39600
C872        C  0.24494063  0.11642951  0.24473648     0.21200
N873        N  0.26643588  0.09398776  0.26757499    -0.32900
C874        C  0.25347707  0.08070316  0.25370234    -0.10400
C875        C  0.23970110  0.09406128  0.23933741    -0.29200
N876        N  0.24281175  0.17881709  0.23728865    -0.45800
C877        C  0.25627799  0.19225289  0.25057775    -0.05100
C878        C  0.26933179  0.17880087  0.26565723    -0.22500
H879        H  0.28376639  0.13532360  0.28433357     0.19300
H880        H  0.22469205  0.13757889  0.22133576     0.18100
H881        H  0.22798212  0.08820187  0.22625847     0.14400
H882        H  0.28154726  0.18441012  0.27836050     0.14300
H883        H  0.27846206  0.08850587  0.27969235     0.32500
H884        H  0.23127717  0.18385589  0.22456399     0.35200
C885        C  0.25212038  0.24358090  0.11761221     0.20800
C886        C  0.24464405  0.23148059  0.13721090    -0.39100
C887        C  0.25226417  0.24003355  0.15827735     0.19800
C888        C  0.26636392  0.25906901  0.15982291     0.22400
C889        C  0.27410787  0.27104682  0.14016668    -0.39600
C890        C  0.26636073  0.26256959  0.11903910     0.21200
N891        N  0.24666293  0.23932588  0.09563445    -0.32900
C892        C  0.25752910  0.25572485  0.08294971    -0.10400
C893        C  0.27005809  0.27048097  0.09691711    -0.29200
N894        N  0.27028782  0.26422054  0.18198143    -0.45800
C895        C  0.25846254  0.24835809  0.19461906    -0.05100
C896        C  0.24720555  0.23290623  0.18029856    -0.22500
H897        H  0.23333286  0.21676999  0.13617133     0.19300
H898        H  0.28497194  0.28608562  0.14125444     0.18100
H899        H  0.28042058  0.28505396  0.09158700     0.14400
H900        H  0.23642290  0.21848150  0.18503000     0.14300
H901        H  0.23624884  0.22607114  0.08964668     0.32500
H902        H  0.27993803  0.27802318  0.18797849     0.35200
C903        C  0.99590807  0.25627839  0.12459451     0.20800
C904        C  0.98827536  0.26758894  0.10463547    -0.39100
C905        C  0.99309256  0.25645366  0.08380689     0.19800
C906        C  0.00466262  0.23568786  0.08292528     0.22400
C907        C  0.01234764  0.22438997  0.10288859    -0.39600
C908        C  0.00755770  0.23553471  0.12374541     0.21200
N909        N  0.99295478  0.26301693  0.14649386    -0.32900
C910        C  0.00277164  0.24646533  0.15974630    -0.10400
C911        C  0.01223297  0.22910400  0.14615641    -0.29200
N912        N  0.00765612  0.22900442  0.06100916    -0.45800
C913        C  0.99806177  0.24572028  0.04776904    -0.05100
C914        C  0.98861093  0.26303275  0.06145781    -0.22500
H915        H  0.97925117  0.28385878  0.10528214     0.19300
H916        H  0.02143937  0.20815975  0.10222093     0.18100
H917        H  0.02077321  0.21358378  0.15192070     0.14400
H918        H  0.98039062  0.27877973  0.05585756     0.14300
H919        H  0.98445885  0.27781638  0.15209954     0.32500
H920        H  0.01595279  0.21405303  0.05556552     0.35200
C921        C  0.13268408  0.24764866  0.00222506     0.20800
C922        C  0.11304603  0.23680560  0.01114760    -0.39100
C923        C  0.09205752  0.24508223  0.00287943     0.19800
C924        C  0.09059951  0.26273635  0.98688577     0.22400
C925        C  0.11029792  0.27357921  0.97783772    -0.39600
C926        C  0.13136563  0.26534804  0.98619840     0.21200
N927        N  0.15463381  0.24297091  0.00745414    -0.32900
C928        C  0.16742770  0.25783439  0.99469670    -0.10400
C929        C  0.15354895  0.27204974  0.98118922    -0.29200
N930        N  0.06851688  0.26716586  0.98176991    -0.45800
C931        C  0.05583299  0.25210553  0.99459023    -0.05100
C932        C  0.07007754  0.23815710  0.00800516    -0.22500
H933        H  0.11402657  0.22293674  0.02363789     0.19300
H934        H  0.10930618  0.28738076  0.96527455     0.18100
H935        H  0.15898204  0.28540690  0.96925827     0.14400
H936        H  0.06536826  0.22451157  0.01985303     0.14300
H937        H  0.16053142  0.23042511  0.01894132     0.32500
H938        H  0.06262012  0.27952767  0.97010723     0.35200
C939        C  0.99111050  0.08005565  0.25713185     0.20800
C940        C  0.98030914  0.09967329  0.26630997    -0.39100
C941        C  0.99030389  0.12089450  0.26009283     0.19800
C942        C  0.00955507  0.12233346  0.24594910     0.22400
C943        C  0.02037240  0.10282212  0.23703944    -0.39600
C944        C  0.01036799  0.08177405  0.24311587     0.21200
N945        N  0.98475439  0.05788929  0.25961408    -0.32900
C946        C  0.00014278  0.04551987  0.24697596    -0.10400
C947        C  0.01635771  0.05999299  0.23657796    -0.29200
N948        N  0.01517434  0.14430846  0.24160862    -0.45800
C949        C  0.99938662  0.15711845  0.25297833    -0.05100
C950        C  0.98366642  0.14315956  0.26490260    -0.22500
H951        H  0.96504991  0.09854211  0.27705954     0.19300
H952        H  0.03524126  0.10396839  0.22574915     0.18100
H953        H  0.03075374  0.05553630  0.22560150     0.14400
H954        H  0.96901847  0.14857813  0.27513506     0.14300
H955        H  0.97067770  0.05172521  0.26906417     0.32500
H956        H  0.02867456  0.15021758  0.23116695     0.35200
C957        C  0.13256251  0.99644066  0.23880998     0.20800
C958        C  0.11318537  0.00507516  0.22740497    -0.39100
C959        C  0.09188261  0.99707991  0.23564734     0.19800
C960        C  0.08999941  0.98161183  0.25376250     0.22400
C961        C  0.10939254  0.97285509  0.26508273    -0.39600
C962        C  0.13071542  0.98090617  0.25691117     0.21200
N963        N  0.15468920  0.00170816  0.23456638    -0.32900
C964        C  0.16706569  0.98942030  0.25004610    -0.10400
C965        C  0.15270271  0.97620465  0.26427153    -0.29200
N966        N  0.06781048  0.97712147  0.25862688    -0.45800
C967        C  0.05536678  0.98987125  0.24352812    -0.05100
C968        C  0.06992093  0.00248699  0.22886243    -0.22500
H969        H  0.11457712  0.01732466  0.21333420     0.19300
H970        H  0.10797370  0.96085044  0.27935812     0.18100
H971        H  0.15767699  0.96479240  0.27817346     0.14400
H972        H  0.06533664  0.01417341  0.21508340     0.14300
H973        H  0.16097941  0.01298870  0.22192741     0.32500
H974        H  0.06165554  0.96628365  0.27169456     0.35200
C975        C  0.01475893  0.15840878  0.99454298     0.20800
C976        C  0.02534480  0.13853062  0.00312484    -0.39100
C977        C  0.01776354  0.11784845  0.99375443     0.19800
C978        C  0.00099847  0.11702578  0.97701072     0.22400
C979        C  0.99036266  0.13694970  0.96843804    -0.39600
C980        C  0.99790480  0.15768070  0.97793015     0.21200
N981        N  0.01871909  0.18007187  0.00102285    -0.32900
C982        C  0.00420915  0.19343354  0.98856785    -0.10400
C983        C  0.99095478  0.17998546  0.97388604    -0.29200
N984        N  0.99647429  0.09518282  0.97136681    -0.45800
C985        C  0.01034762  0.08210213  0.98477847    -0.05100
C986        C  0.02394745  0.09560332  0.99889309    -0.22500
H987        H  0.03833068  0.13912142  0.01633810     0.19300
H988        H  0.97705136  0.13633195  0.95555718     0.18100
H989        H  0.97784093  0.18560283  0.96201358     0.14400
H990        H  0.03633188  0.08989454  0.01151171     0.14300
H991        H  0.03064487  0.18508380  0.01329821     0.32500
H992        H  0.98437834  0.08952075  0.95949990     0.35200
C993        C  0.00976659  0.00236110  0.11070089     0.20800
C994        C  0.01805189  0.01229904  0.13090061    -0.39100
C995        C  0.00958135  0.00279127  0.15152429     0.19800
C996        C  0.99398136  0.98488050  0.15202507     0.22400
C997        C  0.98564775  0.97494406  0.13181879    -0.39600
C998        C  0.99420773  0.98436182  0.11117306     0.21200
N999        N  0.01565112  0.00785947  0.08894196    -0.32900
C1000       C  0.00385052  0.99315495  0.07548248    -0.10400
C1001       C  0.99020371  0.97830903  0.08870532    -0.29200
N1002       N  0.98879073  0.97885243  0.17381952    -0.45800
C1003       C  0.00120905  0.99304224  0.18737871    -0.05100
C1004       C  0.01440623  0.00819042  0.17395623    -0.22500
H1005       H  0.03036902  0.02623245  0.13058842     0.19300
H1006       H  0.97359365  0.96078257  0.13214985     0.18100
H1007       H  0.97911049  0.96473107  0.08269165     0.14400
H1008       H  0.02604392  0.02145096  0.17955072     0.14300
H1009       H  0.02718838  0.02061852  0.08360177     0.32500
H1010       H  0.97757871  0.96574192  0.17892336     0.35200
C1011       C  0.27001349  0.09271409  0.98556331     0.20800
C1012       C  0.27699440  0.11286579  0.97408244    -0.39100
C1013       C  0.26767302  0.13337790  0.98266920     0.19800
C1014       C  0.25263589  0.13378203  0.00129040     0.22400
C1015       C  0.24578192  0.11367208  0.01282268    -0.39600
C1016       C  0.25503364  0.09320853  0.00417913     0.21200
N1017       N  0.27587752  0.07097200  0.98044554    -0.32900
C1018       C  0.26442312  0.05749884  0.99589371    -0.10400
C1019       C  0.25138414  0.07090457  0.01105221    -0.29200
N1020       N  0.24637000  0.15542184  0.00624086    -0.45800
C1021       C  0.25757090  0.16891677  0.99070577    -0.05100
C1022       C  0.27097821  0.15579478  0.97567616    -0.22500
H1023       H  0.28870293  0.11259181  0.95949237     0.19300
H1024       H  0.23400333  0.11391989  0.02736033     0.18100
H1025       H  0.24041995  0.06541540  0.02516710     0.14400
H1026       H  0.28199760  0.16188333  0.96180668     0.14300
H1027       H  0.28661802  0.06576021  0.96695909     0.32500
H1028       H  0.23550002  0.16070259  0.01961473     0.35200
C1029       C  0.17637360  0.99140825  0.98461989     0.20800
C1030       C  0.15718432  0.98211458  0.97361688    -0.39100
C1031       C  0.13576968  0.98800937  0.98317758     0.19800
C1032       C  0.13359295  0.00220028  0.00212262     0.22400
C1033       C  0.15277106  0.01150688  0.01308011    -0.39600
C1034       C  0.17416714  0.00550454  0.00358663     0.21200
N1035       N  0.19863595  0.98818485  0.97913851    -0.32900
C1036       C  0.21074597  0.00030286  0.99480131    -0.10400
C1037       C  0.19593506  0.01134825  0.01028210    -0.29200
N1038       N  0.11135626  0.00549367  0.00762922    -0.45800
C1039       C  0.09932598  0.99327677  0.99205414    -0.05100
C1040       C  0.11394796  0.98206565  0.97661143    -0.22500
H1041       H  0.15880025  0.97106987  0.95876600     0.19300
H1042       H  0.15116661  0.02257817  0.02791337     0.18100
H1043       H  0.20018841  0.02199750  0.02480398     0.14400
H1044       H  0.10921125  0.97139975  0.96221540     0.14300
H1045       H  0.20504151  0.97831381  0.96557273     0.32500
H1046       H  0.10478606  0.01561476  0.02094609     0.35200
C1047       C  0.25438924  0.00578538  0.12820317     0.20800
C1048       C  0.24755616  0.01793265  0.10844268    -0.39100
C1049       C  0.25615851  0.00952052  0.08746970     0.19800
C1050       C  0.27048089  0.99056614  0.08625541     0.22400
C1051       C  0.27737827  0.97849790  0.10600173    -0.39600
C1052       C  0.26877322  0.98684880  0.12695442     0.21200
N1053       N  0.24854741  0.01015561  0.15019747    -0.32900
C1054       C  0.25939421  0.99390173  0.16298690    -0.10400
C1055       C  0.27214511  0.97907748  0.14909086    -0.29200
N1056       N  0.27586481  0.98571758  0.06427047    -0.45800
C1057       C  0.26479097  0.00164475  0.05127910    -0.05100
C1058       C  0.25243199  0.01687181  0.06526064    -0.22500
H1059       H  0.23625076  0.03270081  0.10930719     0.19300
H1060       H  0.28851618  0.96360841  0.10511024     0.18100
H1061       H  0.28258197  0.96462938  0.15448795     0.14400
H1062       H  0.24190896  0.03132616  0.06014548     0.14300
H1063       H  0.23804809  0.02347321  0.15614235     0.32500
H1064       H  0.28604461  0.97206611  0.05857890     0.35200
C1065       C  0.01547783  0.23647186  0.41571722     0.20800
C1066       C  0.02763791  0.23812763  0.39475388    -0.39100
C1067       C  0.01410247  0.23980247  0.37489395     0.19800
C1068       C  0.99030877  0.23947535  0.37580511     0.22400
C1069       C  0.97819424  0.23831182  0.39677317    -0.39600
C1070       C  0.99169486  0.23697644  0.41662963     0.21200
N1071       N  0.02421731  0.23433425  0.43701416    -0.32900
C1072       C  0.00582987  0.23386257  0.45153673    -0.10400
C1073       C  0.98529659  0.23560541  0.43948173    -0.29200
N1074       N  0.98142674  0.24060938  0.35451433    -0.45800
C1075       C  0.99970368  0.24214726  0.33998920    -0.05100
C1076       C  0.02035932  0.24176778  0.35202835    -0.22500
H1077       H  0.04623053  0.23804657  0.39395323     0.19300
H1078       H  0.95960413  0.23836246  0.39757349     0.18100
H1079       H  0.96799942  0.23548221  0.44650664     0.14400
H1080       H  0.03761495  0.24255687  0.34493876     0.14300
H1081       H  0.04156368  0.23357253  0.44143568     0.32500
H1082       H  0.96405110  0.24073016  0.35015112     0.35200
C1083       C  0.99280939  0.35915858  0.50908518     0.20800
C1084       C  0.98049125  0.33887095  0.51372191    -0.39100
C1085       C  0.99342299  0.31848059  0.51340643     0.19800
C1086       C  0.01691631  0.31836152  0.50934486     0.22400
C1087       C  0.02914991  0.33860143  0.50439258    -0.39600
C1088       C  0.01614139  0.35892107  0.50420012     0.21200
N1089       N  0.98445781  0.38070415  0.50785924    -0.32900
C1090       C  0.00252419  0.39419759  0.50171481    -0.10400
C1091       C  0.02256116  0.38121802  0.49922957    -0.29200
N1092       N  0.02506688  0.29673358  0.50904738    -0.45800
C1093       C  0.00655700  0.28299218  0.51239068    -0.05100
C1094       C  0.98651557  0.29587976  0.51517597    -0.22500
H1095       H  0.96211166  0.33890022  0.51676990     0.19300
H1096       H  0.04736274  0.33847154  0.50043466     0.18100
H1097       H  0.03958216  0.38733670  0.49469234     0.14400
H1098       H  0.96913404  0.28953331  0.51718323     0.14300
H1099       H  0.96748412  0.38588274  0.51074159     0.32500
H1100       H  0.04188469  0.29156912  0.50531250     0.35200
C1101       C  0.01620101  0.48038690  0.37054049     0.20800
C1102       C  0.03056055  0.47769353  0.35113350    -0.39100
C1103       C  0.02254907  0.48763870  0.33057763     0.19800
C1104       C  0.00178060  0.49924163  0.32951119     0.22400
C1105       C  0.98753874  0.50202925  0.34887527    -0.39600
C1106       C  0.99557228  0.49219366  0.36936379     0.21200
N1107       N  0.02026796  0.47344427  0.39229108    -0.32900
C1108       C  0.00224467  0.48122852  0.40503054    -0.10400
C1109       C  0.98640706  0.49278537  0.39125817    -0.29200
N1110       N  0.99732222  0.50589817  0.30783773    -0.45800
C1111       C  0.01539613  0.49865850  0.29499122    -0.05100
C1112       C  0.03155521  0.48722004  0.30848534    -0.22500
H1113       H  0.04672056  0.46850482  0.35196351     0.19300
H1114       H  0.97134939  0.51116955  0.34803699     0.18100
H1115       H  0.97085174  0.50147549  0.39673456     0.14400
H1116       H  0.04699419  0.47854388  0.30267748     0.14300
H1117       H  0.03495256  0.46505657  0.39828595     0.32500
H1118       H  0.98242208  0.51395296  0.30191409     0.35200
C1119       C  0.01747055  0.41149691  0.25122015     0.20800
C1120       C  0.02105693  0.39206538  0.26510492    -0.39100
C1121       C  0.01250558  0.37142370  0.25648656     0.19800
C1122       C  0.00101998  0.37028759  0.23574336     0.22400
C1123       C  0.99756169  0.38971770  0.22174277    -0.39600
C1124       C  0.00637977  0.41035981  0.23024182     0.21200
N1125       N  0.02286309  0.43326107  0.25620361    -0.32900
C1126       C  0.01544545  0.44601053  0.23818639    -0.10400
C1127       C  0.00508244  0.43244469  0.22157764    -0.29200
N1128       N  0.99464086  0.34862231  0.23141188    -0.45800
C1129       C  0.00239126  0.33589335  0.24938273    -0.05100
C1130       C  0.01357446  0.34949212  0.26541922    -0.22500
H1131       H  0.02974178  0.39298932  0.28147895     0.19300
H1132       H  0.98856677  0.38884332  0.20553595     0.18100
H1133       H  0.99648026  0.43814738  0.20609898     0.14400
H1134       H  0.02180401  0.34399985  0.28117817     0.14300
H1135       H  0.03025070  0.43925556  0.27135151     0.32500
H1136       H  0.98616173  0.34275928  0.21680231     0.35200
C1137       C  0.54990487  0.05452486  0.19414180     0.20800
C1138       C  0.55135196  0.07377170  0.17931557    -0.39100
C1139       C  0.57354846  0.07951974  0.17137031     0.19800
C1140       C  0.59264387  0.06680568  0.17763228     0.22400
C1141       C  0.59121151  0.04772743  0.19249473    -0.39600
C1142       C  0.56914895  0.04217861  0.20056254     0.21200
N1143       N  0.53083789  0.04518421  0.20355779    -0.32900
C1144       C  0.53802440  0.02678478  0.21621010    -0.10400
C1145       C  0.56188053  0.02452146  0.21476298    -0.29200
N1146       N  0.61141134  0.07431442  0.16637051    -0.45800
C1147       C  0.60446109  0.09195821  0.15271101    -0.05100
C1148       C  0.58093038  0.09599923  0.15556390    -0.22500
H1149       H  0.53626937  0.08325013  0.17398361     0.19300
H1150       H  0.60615937  0.03763592  0.19705149     0.18100
H1151       H  0.57241552  0.01140801  0.22275521     0.14400
H1152       H  0.57039831  0.10803572  0.14603362     0.14300
H1153       H  0.51411687  0.05121782  0.20134421     0.32500
H1154       H  0.62784991  0.06712079  0.16713316     0.35200
C1155       C  0.42329416  0.00861644  0.24455968     0.20800
C1156       C  0.40309101  0.02065765  0.25006376    -0.39100
C1157       C  0.38274800  0.00775238  0.24950109     0.19800
C1158       C  0.38252895  0.98475248  0.24349460     0.22400
C1159       C  0.40274763  0.97262226  0.23842341    -0.39600
C1160       C  0.42309070  0.98540366  0.23938650     0.21200
N1161       N  0.44489964  0.01676456  0.24434188    -0.32900
C1162       C  0.45842926  0.99844622  0.23946485    -0.10400
C1163       C  0.44552944  0.97860942  0.23633555    -0.29200
N1164       N  0.36095965  0.97658373  0.24345277    -0.45800
C1165       C  0.34737910  0.99441056  0.24983099    -0.05100
C1166       C  0.36032937  0.01410442  0.25391075    -0.22500
H1167       H  0.40321083  0.03868419  0.25455737     0.19300
H1168       H  0.40265972  0.95453367  0.23417504     0.18100
H1169       H  0.45180656  0.96147775  0.23268678     0.14400
H1170       H  0.35409994  0.03092797  0.25881844     0.14300
H1171       H  0.45020218  0.03344359  0.24818290     0.32500
H1172       H  0.35578602  0.95992366  0.23936189     0.35200
C1173       C  0.51399934  0.00253024  0.37147067     0.20800
C1174       C  0.52438345  0.01274179  0.35204028    -0.39100
C1175       C  0.51851556  0.00329484  0.33076486     0.19800
C1176       C  0.50344129  0.98507251  0.32895391     0.22400
C1177       C  0.49305726  0.97476203  0.34843444    -0.39600
C1178       C  0.49893878  0.98423453  0.36979690     0.21200
N1179       N  0.51686425  0.00843930  0.39355713    -0.32900
C1180       C  0.50364620  0.99381235  0.40623173    -0.10400
C1181       C  0.49209349  0.97844633  0.39199297    -0.29200
N1182       N  0.50020832  0.97976965  0.30672524    -0.45800
C1183       C  0.51325276  0.99480419  0.29419996    -0.05100
C1184       C  0.52503187  0.00964607  0.30874915    -0.22500
H1185       H  0.53607824  0.02711576  0.35339222     0.19300
H1186       H  0.48117680  0.96054506  0.34704228     0.18100
H1187       H  0.48049103  0.96478849  0.39717744     0.14400
H1188       H  0.53633034  0.02368109  0.30398231     0.14300
H1189       H  0.52737656  0.02156203  0.39965845     0.32500
H1190       H  0.48941354  0.96687079  0.30072424     0.35200
C1191       C  0.49845475  0.12022360  0.48070132     0.20800
C1192       C  0.50194963  0.13966668  0.46658671    -0.39100
C1193       C  0.49583425  0.16084715  0.47634319     0.19800
C1194       C  0.48704167  0.16248259  0.49850349     0.22400
C1195       C  0.48346516  0.14304798  0.51257338    -0.39600
C1196       C  0.48944218  0.12187079  0.50277422     0.21200
N1197       N  0.50321302  0.09821226  0.47560807    -0.32900
C1198       C  0.49705275  0.08571436  0.49450111    -0.10400
C1199       C  0.48832384  0.09987789  0.51180024    -0.29200
N1200       N  0.48388427  0.18458604  0.50425601    -0.45800
C1201       C  0.49069881  0.19714564  0.48568593    -0.05100
C1202       C  0.49815867  0.18297399  0.46785750    -0.22500
H1203       H  0.50920755  0.13842195  0.44940847     0.19300
H1204       H  0.47682424  0.14435784  0.52999088     0.18100
H1205       H  0.48213923  0.09478352  0.52871842     0.14400
H1206       H  0.50561717  0.18821732  0.45150290     0.14300
H1207       H  0.51005817  0.09204009  0.46014526     0.32500
H1208       H  0.47791401  0.19072107  0.52003154     0.35200
C1209       C  0.43655993  0.31616313  0.40440500     0.20800
C1210       C  0.44993177  0.29620185  0.40671089    -0.39100
C1211       C  0.45991741  0.29259903  0.42830323     0.19800
C1212       C  0.45662568  0.30753030  0.44644387     0.22400
C1213       C  0.44339878  0.32778522  0.44403234    -0.39600
C1214       C  0.43352289  0.33156820  0.42220646     0.21200
N1215       N  0.42427510  0.32251796  0.38598949    -0.32900
C1216       C  0.41311672  0.34219518  0.39178425    -0.10400
C1217       C  0.41869782  0.34859256  0.41425199    -0.29200
N1218       N  0.46687980  0.29930366  0.46559081    -0.45800
C1219       C  0.47683932  0.27899062  0.45951003    -0.05100
C1220       C  0.47307432  0.27456701  0.43623422    -0.22500
H1221       H  0.45198783  0.28405536  0.39280483     0.19300
H1222       H  0.44055884  0.33942827  0.45823140     0.18100
H1223       H  0.41174919  0.36288084  0.42391558     0.14400
H1224       H  0.47858715  0.25964879  0.42660628     0.14300
H1225       H  0.42319009  0.31354768  0.37052176     0.32500
H1226       H  0.46689825  0.30710622  0.48171451     0.35200
C1227       C  0.29745727  0.30251528  0.28818655     0.20800
C1228       C  0.30437352  0.32517664  0.29296510    -0.39100
C1229       C  0.32296387  0.32727438  0.30818700     0.19800
C1230       C  0.33378631  0.30827122  0.31759188     0.22400
C1231       C  0.32682509  0.28582061  0.31291486    -0.39600
C1232       C  0.30827972  0.28375249  0.29799181     0.21200
N1233       N  0.28066298  0.29555541  0.27402687    -0.32900
C1234       C  0.28092340  0.27218067  0.27483397    -0.10400
C1235       C  0.29790363  0.26436405  0.28988658    -0.29200
N1236       N  0.35042673  0.31450780  0.33202982    -0.45800
C1237       C  0.35026945  0.33782585  0.33227651    -0.05100
C1238       C  0.33338106  0.34640603  0.31742993    -0.22500
H1239       H  0.29586240  0.34000052  0.28555071     0.19300
H1240       H  0.33519827  0.27098622  0.32047893     0.18100
H1241       H  0.30290002  0.24696578  0.29408946     0.14400
H1242       H  0.32884696  0.36423327  0.31449488     0.14300
H1243       H  0.27003212  0.30598581  0.26398642     0.32500
H1244       H  0.36036383  0.30315407  0.34170856     0.35200
C1245       C  0.44519330  0.44942958  0.29046396     0.20800
C1246       C  0.42240383  0.44235654  0.29420432    -0.39100
C1247       C  0.41859087  0.42799175  0.31341501     0.19800
C1248       C  0.43604294  0.42125166  0.32802620     0.22400
C1249       C  0.45894966  0.42820666  0.32414168    -0.39600
C1250       C  0.46280135  0.44245646  0.30473687     0.21200
N1251       N  0.45326917  0.46275984  0.27315917    -0.32900
C1252       C  0.47633627  0.46415281  0.27603187    -0.10400
C1253       C  0.48285685  0.45169764  0.29574022    -0.29200
N1254       N  0.42801928  0.40646099  0.34426278    -0.45800
C1255       C  0.40535986  0.40354300  0.33970334    -0.05100
C1256       C  0.39895851  0.41679723  0.32062590    -0.22500
H1257       H  0.40869189  0.44727105  0.28269053     0.19300
H1258       H  0.47282328  0.42255475  0.33511483     0.18100
H1259       H  0.49982409  0.44979913  0.30293126     0.14400
H1260       H  0.38240053  0.41709232  0.31228022     0.14300
H1261       H  0.44367422  0.47041432  0.26005181     0.32500
H1262       H  0.43765526  0.39764260  0.35659115     0.35200
C1263       C  0.51198571  0.49381643  0.11733714     0.20800
C1264       C  0.52200342  0.50246792  0.13738563    -0.39100
C1265       C  0.51272433  0.49429505  0.15829940     0.19800
C1266       C  0.49484119  0.47869922  0.15931784     0.22400
C1267       C  0.48481801  0.46997489  0.13921927    -0.39600
C1268       C  0.49411296  0.47814600  0.11822133     0.21200
N1269       N  0.51763960  0.49903763  0.09537762    -0.32900
C1270       C  0.50331790  0.48659413  0.08204232    -0.10400
C1271       C  0.48839402  0.47332408  0.09571451    -0.29200
N1272       N  0.48897069  0.47400513  0.18139276    -0.45800
C1273       C  0.50320160  0.48679713  0.19458773    -0.05100
C1274       C  0.51830419  0.49957065  0.18059785    -0.22500
H1275       H  0.53593690  0.51477759  0.13675787     0.19300
H1276       H  0.47076110  0.45781265  0.13986919     0.18100
H1277       H  0.47511292  0.46175291  0.08995217     0.14400
H1278       H  0.53161766  0.51137316  0.18568345     0.14300
H1279       H  0.53048599  0.51036737  0.08980568     0.32500
H1280       H  0.47587827  0.46300410  0.18701476     0.35200
C1281       C  0.12649481  0.47705944  0.48478262     0.20800
C1282       C  0.14627119  0.46668781  0.47538141    -0.39100
C1283       C  0.16736277  0.47439548  0.48401216     0.19800
C1284       C  0.16865675  0.49123655  0.50060882     0.22400
C1285       C  0.14887455  0.50171128  0.50993164    -0.39600
C1286       C  0.12775085  0.49391918  0.50140701     0.21200
N1287       N  0.10445832  0.47220191  0.48001220    -0.32900
C1288       C  0.09147096  0.48599725  0.49370800    -0.10400
C1289       C  0.10543152  0.49988175  0.50725768    -0.29200
N1290       N  0.19068780  0.49537547  0.50606327    -0.45800
C1291       C  0.20370283  0.48108601  0.49285602    -0.05100
C1292       C  0.18959299  0.46770214  0.47888053    -0.22500
H1293       H  0.14529433  0.45338599  0.46249012     0.19300
H1294       H  0.14985553  0.51478262  0.52305545     0.18100
H1295       H  0.09999439  0.51233738  0.51995188     0.14400
H1296       H  0.19475866  0.45486863  0.46647722     0.14300
H1297       H  0.09860594  0.45999386  0.46834222     0.32500
H1298       H  0.19628505  0.50725622  0.51815343     0.35200
C1299       C  0.32050206  0.40373933  0.41990671     0.20800
C1300       C  0.29828358  0.40731171  0.42879375    -0.39100
C1301       C  0.29578541  0.42552553  0.44424072     0.19800
C1302       C  0.31410611  0.43900246  0.45072312     0.22400
C1303       C  0.33649512  0.43548871  0.44166228    -0.39600
C1304       C  0.33896371  0.41731615  0.42579769     0.21200
N1305       N  0.32669342  0.38816882  0.40415567    -0.32900
C1306       C  0.34930575  0.39174002  0.39920981    -0.10400
C1307       C  0.35769921  0.40976959  0.41269875    -0.29200
N1308       N  0.30690247  0.45549547  0.46534660    -0.45800
C1309       C  0.28375013  0.45280488  0.46785498    -0.05100
C1310       C  0.27633051  0.43405611  0.45492739    -0.22500
H1311       H  0.28382522  0.39693440  0.42359293     0.19300
H1312       H  0.35078202  0.44637729  0.44624919     0.18100
H1313       H  0.37484889  0.41693693  0.41238232     0.14400
H1314       H  0.25907815  0.42748647  0.45316385     0.14300
H1315       H  0.31564281  0.37605193  0.39711256     0.32500
H1316       H  0.31700608  0.46826343  0.47271800     0.35200
C1317       C  0.99240109  0.60833632  0.47861642     0.20800
C1318       C  0.98475960  0.62743011  0.46582017    -0.39100
C1319       C  0.98971071  0.64904122  0.47514439     0.19800
C1320       C  0.00139287  0.65137522  0.49561422     0.22400
C1321       C  0.00918353  0.63229708  0.50834366    -0.39600
C1322       C  0.00425469  0.61068824  0.49901689     0.21200
N1323       N  0.98955336  0.58601785  0.47359680    -0.32900
C1324       C  0.99978403  0.57400511  0.49081054    -0.10400
C1325       C  0.00919214  0.58881868  0.50701386    -0.29200
N1326       N  0.00379004  0.67366313  0.50091425    -0.45800
C1327       C  0.99361918  0.68579747  0.48367264    -0.05100
C1328       C  0.98462954  0.67091640  0.46725276    -0.22500
H1329       H  0.97551990  0.62557927  0.44984689     0.19300
H1330       H  0.01833976  0.63415539  0.52436696     0.18100
H1331       H  0.01819911  0.58421244  0.52261331     0.14400
H1332       H  0.97581197  0.67541521  0.45152382     0.14300
H1333       H  0.98116432  0.57935445  0.45928619     0.32500
H1334       H  0.01175992  0.67993495  0.51559976     0.35200
C1335       C  0.62604504  0.98324318  0.49205495     0.20800
C1336       C  0.64515188  0.96851904  0.49099375    -0.39100
C1337       C  0.66648230  0.97930309  0.48776676     0.19800
C1338       C  0.66857337  0.00297482  0.48613859     0.22400
C1339       C  0.64943151  0.01767334  0.48677522    -0.39600
C1340       C  0.62806493  0.00685673  0.48960799     0.21200
N1341       N  0.60396120  0.97723935  0.49507733    -0.32900
C1342       C  0.59178246  0.99708522  0.49406144    -0.10400
C1343       C  0.60617015  0.01597008  0.49060139    -0.29200
N1344       N  0.69075541  0.00905067  0.48445849    -0.45800
C1345       C  0.70284471  0.98913707  0.48469601    -0.05100
C1346       C  0.68835064  0.97014977  0.48654408    -0.22500
H1347       H  0.64353217  0.95004644  0.49269940     0.19300
H1348       H  0.65107618  0.03616201  0.48529681     0.18100
H1349       H  0.60127351  0.03387219  0.48909209     0.14400
H1350       H  0.69322204  0.95222527  0.48782482     0.14300
H1351       H  0.59747679  0.96059765  0.49711547     0.32500
H1352       H  0.69732540  0.02573567  0.48341825     0.35200
C1353       C  0.92482384  0.91738251  0.30343952     0.20800
C1354       C  0.93131945  0.92273801  0.28067033    -0.39100
C1355       C  0.94891916  0.93906987  0.27814167     0.19800
C1356       C  0.95929105  0.94921676  0.29681685     0.22400
C1357       C  0.95287969  0.94377628  0.31957783    -0.39600
C1358       C  0.93526246  0.92747339  0.32211448     0.21200
N1359       N  0.90866256  0.90232268  0.31044519    -0.32900
C1360       C  0.90879594  0.90272971  0.33386725    -0.10400
C1361       C  0.92526092  0.91822823  0.34167121    -0.29200
N1362       N  0.97523431  0.96448900  0.28979464    -0.45800
C1363       C  0.97501140  0.96428017  0.26643124    -0.05100
C1364       C  0.95881165  0.94841194  0.25857684    -0.22500
H1365       H  0.92319556  0.91485852  0.26600951     0.19300
H1366       H  0.96096929  0.95169608  0.33423186     0.18100
H1367       H  0.92950172  0.92196522  0.35936272     0.14400
H1368       H  0.95436107  0.94428512  0.24106661     0.14300
H1369       H  0.89876710  0.89212598  0.29967535     0.32500
H1370       H  0.98545411  0.97475435  0.30024632     0.35200
C1371       C  0.93710459  0.81594378  0.40341667     0.20800
C1372       C  0.95893812  0.80652351  0.40736203    -0.39100
C1373       C  0.96019697  0.78968632  0.42466805     0.19800
C1374       C  0.94112600  0.78250345  0.43706487     0.22400
C1375       C  0.91906770  0.79192521  0.43301790    -0.39600
C1376       C  0.91781574  0.80906600  0.41566230     0.21200
N1377       N  0.93200335  0.83290077  0.38856472    -0.32900
C1378       C  0.90917279  0.83737581  0.39105968    -0.10400
C1379       C  0.89964102  0.82260535  0.40784837    -0.29200
N1380       N  0.94733154  0.76703063  0.45333160    -0.45800
C1381       C  0.97057997  0.76459759  0.45151750    -0.05100
C1382       C  0.97904591  0.77843341  0.43353096    -0.22500
H1383       H  0.97403109  0.81236588  0.39799231     0.19300
H1384       H  0.90413705  0.78670083  0.44298949     0.18100
H1385       H  0.88200164  0.82211103  0.41387888     0.14400
H1386       H  0.99664207  0.78072091  0.42788405     0.14300
H1387       H  0.94384901  0.84092713  0.37759504     0.32500
H1388       H  0.93654695  0.75923843  0.46555802     0.35200
C1389       C  0.82293820  0.91069138  0.41743467     0.20800
C1390       C  0.79984328  0.91552274  0.42315589    -0.39100
C1391       C  0.79605487  0.93507982  0.43689722     0.19800
C1392       C  0.81389756  0.94859304  0.44456766     0.22400
C1393       C  0.83690945  0.94386546  0.43877631    -0.39600
C1394       C  0.84067375  0.92454856  0.42483079     0.21200
N1395       N  0.83101074  0.89423879  0.40317257    -0.32900
C1396       C  0.85399458  0.89791978  0.40116190    -0.10400
C1397       C  0.86057079  0.91664709  0.41451107    -0.29200
N1398       N  0.80587616  0.96603536  0.45748292    -0.45800
C1399       C  0.78264647  0.96390815  0.45809548    -0.05100
C1400       C  0.77592458  0.94469371  0.44529374    -0.22500
H1401       H  0.78581928  0.90510301  0.41698471     0.19300
H1402       H  0.85085413  0.95475809  0.44429465     0.18100
H1403       H  0.87745758  0.92436470  0.41534312     0.14400
H1404       H  0.75878907  0.93803128  0.44290431     0.14300
H1405       H  0.82128770  0.88238259  0.39400056     0.32500
H1406       H  0.81565008  0.97850167  0.46575672     0.35200
C1407       C  0.81906115  0.83251769  0.32050705     0.20800
C1408       C  0.80369376  0.83049582  0.30219185    -0.39100
C1409       C  0.79421110  0.80864888  0.29913403     0.19800
C1410       C  0.79987679  0.79008613  0.31298112     0.22400
C1411       C  0.81514582  0.79216121  0.33151061    -0.39600
C1412       C  0.82443054  0.81418466  0.33482290     0.21200
N1413       N  0.83142694  0.85108958  0.32591744    -0.32900
C1414       C  0.84480470  0.84473425  0.34386918    -0.10400
C1415       C  0.84075897  0.82187077  0.35015675    -0.29200
N1416       N  0.78970262  0.77084130  0.30542469    -0.45800
C1417       C  0.77743130  0.77724780  0.28660876    -0.05100
C1418       C  0.77957535  0.80082583  0.28249170    -0.22500
H1419       H  0.79982974  0.84477892  0.29080484     0.19300
H1420       H  0.81988244  0.77760022  0.34217509     0.18100
H1421       H  0.84968865  0.81184417  0.36306215     0.14400
H1422       H  0.77223879  0.81069720  0.26848795     0.14300
H1423       H  0.83132006  0.86695575  0.31736238     0.32500
H1424       H  0.79136265  0.75445752  0.31265225     0.35200
C1425       C  0.63059729  0.25169288  0.48059054     0.20800
C1426       C  0.61139514  0.26191878  0.47025428    -0.39100
C1427       C  0.59003092  0.25256948  0.47649809     0.19800
C1428       C  0.58792576  0.23436722  0.49180649     0.22400
C1429       C  0.60719962  0.22407657  0.50216758    -0.39600
C1430       C  0.62864907  0.23352385  0.49600511     0.21200
N1431       N  0.65267818  0.25766701  0.47757301    -0.32900
C1432       C  0.66507536  0.24330645  0.49115217    -0.10400
C1433       C  0.65067344  0.22796113  0.50301360    -0.29200
N1434       N  0.56563809  0.22941469  0.49567542    -0.45800
C1435       C  0.55337936  0.24473957  0.48291882    -0.05100
C1436       C  0.56816195  0.25930186  0.47053935    -0.22500
H1437       H  0.61296513  0.27634272  0.45845690     0.19300
H1438       H  0.60557980  0.21001059  0.51438258     0.18100
H1439       H  0.65563634  0.21449463  0.51493905     0.14400
H1440       H  0.56366429  0.27359516  0.45943543     0.14300
H1441       H  0.65894721  0.27076057  0.46682766     0.32500
H1442       H  0.55938332  0.21672643  0.50686417     0.35200
C1443       C  0.74755907  0.12065888  0.49527915     0.20800
C1444       C  0.73687796  0.10004884  0.50198929    -0.39100
C1445       C  0.74630877  0.07993097  0.49258028     0.19800
C1446       C  0.76500534  0.08010963  0.47771916     0.22400
C1447       C  0.77570908  0.10076435  0.47096733    -0.39600
C1448       C  0.76618771  0.12095557  0.48027016     0.21200
N1449       N  0.74159643  0.14215151  0.50145726    -0.32900
C1450       C  0.75644565  0.15627668  0.49011917    -0.10400
C1451       C  0.77204594  0.14365517  0.47681454    -0.29200
N1452       N  0.77088415  0.05850743  0.47167660    -0.45800
C1453       C  0.75583908  0.04444449  0.48293342    -0.05100
C1454       C  0.74016614  0.05739216  0.49592170    -0.22500
H1455       H  0.72227185  0.09967919  0.51366780     0.19300
H1456       H  0.79031310  0.10111783  0.45929084     0.18100
H1457       H  0.78569235  0.15025571  0.46584017     0.14400
H1458       H  0.72615980  0.05145792  0.50675023     0.14300
H1459       H  0.72803935  0.14691682  0.51233846     0.32500
H1460       H  0.78461114  0.05369209  0.46104942     0.35200
C1461       C  0.87921639  0.22863339  0.49274922     0.20800
C1462       C  0.89855393  0.21551187  0.48675076    -0.39100
C1463       C  0.91886103  0.22103486  0.49822472     0.19800
C1464       C  0.91989263  0.23847561  0.51428840     0.22400
C1465       C  0.90053318  0.25162214  0.52030652    -0.39600
C1466       C  0.88015868  0.24594781  0.50894970     0.21200
N1467       N  0.85786012  0.22653493  0.48448188    -0.32900
C1468       C  0.84504737  0.24252690  0.49559568    -0.10400
C1469       C  0.85836496  0.25503992  0.51094631    -0.29200
N1470       N  0.94159326  0.24151018  0.52131041    -0.45800
C1471       C  0.95435214  0.22581742  0.50972931    -0.05100
C1472       C  0.94082896  0.21271744  0.49520491    -0.22500
H1473       H  0.89789664  0.20215902  0.47388913     0.19300
H1474       H  0.90133871  0.26541110  0.53269084     0.18100
H1475       H  0.85273558  0.26856631  0.52240009     0.14400
H1476       H  0.94659705  0.20016160  0.48275258     0.14300
H1477       H  0.85224429  0.21460058  0.47241519     0.32500
H1478       H  0.94759942  0.25434437  0.53220280     0.35200
C1479       C  0.75182377  0.24480552  0.65825070     0.20800
C1480       C  0.74216790  0.23385120  0.63918371    -0.39100
C1481       C  0.74943119  0.24201346  0.61755254     0.19800
C1482       C  0.76507796  0.25978616  0.61512102     0.22400
C1483       C  0.77477078  0.27073259  0.63421758    -0.39600
C1484       C  0.76752842  0.26249516  0.65588358     0.21200
N1485       N  0.74813184  0.23975354  0.68055639    -0.32900
C1486       C  0.76171210  0.25417536  0.69270396    -0.10400
C1487       C  0.77397856  0.26875787  0.67778052    -0.29200
N1488       N  0.76919857  0.26428305  0.59273674    -0.45800
C1489       C  0.75608616  0.24925798  0.58083834    -0.05100
C1490       C  0.74354102  0.23505329  0.59573686    -0.22500
H1491       H  0.73001901  0.21986972  0.64106758     0.19300
H1492       H  0.78716003  0.28450159  0.63234041     0.18100
H1493       H  0.78627908  0.28189715  0.68220120     0.14400
H1494       H  0.73174875  0.22147188  0.59121790     0.14300
H1495       H  0.73721616  0.22688780  0.68678802     0.32500
H1496       H  0.78029984  0.27677628  0.58597471     0.35200
C1497       C  0.75623141  0.98284100  0.61485325     0.20800
C1498       C  0.75329660  0.96890203  0.59551398    -0.39100
C1499       C  0.75787095  0.97942943  0.57419033     0.19800
C1500       C  0.76444406  0.00225074  0.57225781     0.22400
C1501       C  0.76781540  0.01608882  0.59164388    -0.39600
C1502       C  0.76359416  0.00541925  0.61301391     0.21200
N1503       N  0.75270882  0.97693184  0.63698734    -0.32900
C1504       C  0.75824869  0.99573779  0.64937566    -0.10400
C1505       C  0.76518304  0.01386154  0.63506132    -0.29200
N1506       N  0.76623125  0.00854327  0.55000860    -0.45800
C1507       C  0.76120651  0.98945830  0.53781826    -0.05100
C1508       C  0.75600282  0.97092948  0.55221664    -0.22500
H1509       H  0.74764455  0.95122241  0.59695598     0.19300
H1510       H  0.77309065  0.03388455  0.59018681     0.18100
H1511       H  0.77053003  0.03090016  0.64011090     0.14400
H1512       H  0.75056572  0.95390049  0.54723963     0.14300
H1513       H  0.74724355  0.96096544  0.64330456     0.32500
H1514       H  0.77024017  0.02484910  0.54346700     0.35200
C1515       C  0.77174430  0.12183835  0.74114572     0.20800
C1516       C  0.78624184  0.14107778  0.73897133    -0.39100
C1517       C  0.77646859  0.16229060  0.74512663     0.19800
C1518       C  0.75386621  0.16414733  0.75255138     0.22400
C1519       C  0.73953312  0.14486868  0.75517407    -0.39600
C1520       C  0.74939110  0.12365626  0.74928293     0.21200
N1521       N  0.77678205  0.09987506  0.73602611    -0.32900
C1522       C  0.75763011  0.08754437  0.74126423    -0.10400
C1523       C  0.74018715  0.10179252  0.74965958    -0.29200
N1524       N  0.74804348  0.18631094  0.75537234    -0.45800
C1525       C  0.76709681  0.19868107  0.75002289    -0.05100
C1526       C  0.78530324  0.18433105  0.74376725    -0.22500
H1527       H  0.80370832  0.13968659  0.73255886     0.19300
H1528       H  0.72186146  0.14633833  0.76096499     0.18100
H1529       H  0.72310153  0.09681779  0.75527205     0.14400
H1530       H  0.80218444  0.18942276  0.73765592     0.14300
H1531       H  0.79244148  0.09358604  0.72976756     0.32500
H1532       H  0.73187643  0.19273870  0.75996103     0.35200
C1533       C  0.83333903  0.25201442  0.23219268     0.20800
C1534       C  0.85241498  0.26669589  0.23309622    -0.39100
C1535       C  0.87366496  0.25590620  0.23641639     0.19800
C1536       C  0.87568008  0.23229777  0.23888921     0.22400
C1537       C  0.85663459  0.21755798  0.23747200    -0.39600
C1538       C  0.83535010  0.22834321  0.23396513     0.21200
N1539       N  0.81118609  0.25822236  0.23132522    -0.32900
C1540       C  0.79892098  0.23845607  0.23241819    -0.10400
C1541       C  0.81335457  0.21934604  0.23376048    -0.29200
N1542       N  0.89757436  0.22640252  0.24306908    -0.45800
C1543       C  0.90960738  0.24634051  0.24284445    -0.05100
C1544       C  0.89533834  0.26514217  0.23863900    -0.22500
H1545       H  0.85073634  0.28520556  0.23194967     0.19300
H1546       H  0.85819090  0.19912393  0.23962793     0.18100
H1547       H  0.80839549  0.20154177  0.23604141     0.14400
H1548       H  0.90013664  0.28309999  0.23764756     0.14300
H1549       H  0.80472387  0.27498922  0.23095564     0.32500
H1550       H  0.90402961  0.20981154  0.24556225     0.35200
C1551       C  0.68944274  0.19742466  0.19862326     0.20800
C1552       C  0.67011534  0.18287324  0.19696815    -0.39100
C1553       C  0.66622683  0.17319871  0.17511701     0.19800
C1554       C  0.68069390  0.17763350  0.15656702     0.22400
C1555       C  0.69966258  0.19240015  0.15813793    -0.39600
C1556       C  0.70338266  0.20215055  0.17978243     0.21200
N1557       N  0.69779963  0.20756880  0.21762901    -0.32900
C1558       C  0.71722790  0.21885974  0.21076669    -0.10400
C1559       C  0.72091240  0.21609316  0.18715555    -0.29200
N1560       N  0.67483523  0.16489914  0.13834630    -0.45800
C1561       C  0.65635280  0.15222793  0.14499487    -0.05100
C1562       C  0.65025421  0.15710448  0.16783247    -0.22500
H1563       H  0.65935160  0.17881409  0.21174340     0.19300
H1564       H  0.71115446  0.19550429  0.14368432     0.18100
H1565       H  0.73511569  0.22270182  0.17693102     0.14400
H1566       H  0.63705145  0.14879632  0.17815892     0.14300
H1567       H  0.69068086  0.20656113  0.23416232     0.32500
H1568       H  0.68347858  0.16422097  0.12251413     0.35200
C1569       C  0.75907318  0.23941338  0.32463869     0.20800
C1570       C  0.77358257  0.23687460  0.34365781    -0.39100
C1571       C  0.76326432  0.24058302  0.36521497     0.19800
C1572       C  0.74036485  0.24673407  0.36754268     0.22400
C1573       C  0.72575551  0.24879461  0.34856738    -0.39600
C1574       C  0.73596565  0.24470895  0.32704298     0.21200
N1575       N  0.76485624  0.23756384  0.30231565    -0.32900
C1576       C  0.74522027  0.24122563  0.29049419    -0.10400
C1577       C  0.72677066  0.24565100  0.30525709    -0.29200
N1578       N  0.73486590  0.25002991  0.38975028    -0.45800
C1579       C  0.75427553  0.24558170  0.40167823    -0.05100
C1580       C  0.77236265  0.23947903  0.38702702    -0.22500
H1581       H  0.79158791  0.23250707  0.34178901     0.19300
H1582       H  0.70780814  0.25339527  0.35042301     0.18100
H1583       H  0.70926957  0.24980040  0.30061941     0.14400
H1584       H  0.78978019  0.23501057  0.39170013     0.14300
H1585       H  0.78115676  0.23409909  0.29547913     0.32500
H1586       H  0.71878286  0.25460113  0.39643707     0.35200
C1587       C  0.74726210  0.62034377  0.25510110     0.20800
C1588       C  0.73475087  0.63968425  0.26214897    -0.39100
C1589       C  0.74653167  0.66062998  0.26078888     0.19800
C1590       C  0.76912591  0.66218572  0.25319381     0.22400
C1591       C  0.78153530  0.64285745  0.24583102    -0.39600
C1592       C  0.76967475  0.62190948  0.24700412     0.21200
N1593       N  0.74000652  0.59847126  0.25493959    -0.32900
C1594       C  0.75782231  0.58606943  0.24641469    -0.10400
C1595       C  0.77662857  0.60004937  0.24119367    -0.29200
N1596       N  0.77622038  0.68415311  0.25308991    -0.45800
C1597       C  0.75790139  0.69654435  0.26041792    -0.05100
C1598       C  0.73906159  0.68258355  0.26529334    -0.22500
H1599       H  0.71709915  0.63852941  0.26808960     0.19300
H1600       H  0.79905465  0.64406405  0.23951496     0.18100
H1601       H  0.79325645  0.59484232  0.23453381     0.14400
H1602       H  0.72202568  0.68791029  0.27069270     0.14300
H1603       H  0.72392800  0.59235172  0.26026934     0.32500
H1604       H  0.79210824  0.69045802  0.24741119     0.35200
C1605       C  0.63275583  0.49588489  0.25555297     0.20800
C1606       C  0.61355822  0.49473341  0.27028220    -0.39100
C1607       C  0.59247136  0.49105177  0.25950168     0.19800
C1608       C  0.59065896  0.48913010  0.23582039     0.22400
C1609       C  0.60988585  0.48989147  0.22112287    -0.39600
C1610       C  0.63101663  0.49314284  0.23195435     0.21200
N1611       N  0.65474305  0.49880087  0.26158547    -0.32900
C1612       C  0.66709994  0.49731152  0.24176706    -0.10400
C1613       C  0.65294739  0.49386249  0.22288654    -0.29200
N1614       N  0.56860350  0.48723733  0.22971594    -0.45800
C1615       C  0.55637110  0.48767581  0.24964997    -0.05100
C1616       C  0.57058672  0.48979058  0.26865740    -0.22500
H1617       H  0.61493982  0.49661926  0.28875073     0.19300
H1618       H  0.60848368  0.48811908  0.20264208     0.18100
H1619       H  0.65806066  0.49180331  0.20504804     0.14400
H1620       H  0.56549246  0.49147334  0.28654195     0.14300
H1621       H  0.66105233  0.50075548  0.27824562     0.32500
H1622       H  0.56219189  0.48619634  0.21300581     0.35200
C1623       C  0.74691354  0.37343650  0.22764396     0.20800
C1624       C  0.73772277  0.35431800  0.21633685    -0.39100
C1625       C  0.74466251  0.33279060  0.22482224     0.19800
C1626       C  0.75959598  0.33059544  0.24309293     0.22400
C1627       C  0.76893797  0.34967412  0.25424829    -0.39600
C1628       C  0.76201689  0.37116022  0.24580257     0.21200
N1629       N  0.74257445  0.39570895  0.22331310    -0.32900
C1630       C  0.75507250  0.40766776  0.23877149    -0.10400
C1631       C  0.76749507  0.39295219  0.25305345    -0.29200
N1632       N  0.76274962  0.30842485  0.24859040    -0.45800
C1633       C  0.74969855  0.29620376  0.23378113    -0.05100
C1634       C  0.73826376  0.31090473  0.21854335    -0.22500
H1635       H  0.72576690  0.35607849  0.20225885     0.19300
H1636       H  0.78046878  0.34790031  0.26867993     0.18100
H1637       H  0.77883914  0.39756852  0.26694291     0.14400
H1638       H  0.72646332  0.30634310  0.20503956     0.14300
H1639       H  0.73177497  0.40236054  0.21061881     0.32500
H1640       H  0.77279214  0.30236700  0.26212812     0.35200
C1641       C  0.88212230  0.48697188  0.24624745     0.20800
C1642       C  0.90233751  0.47737319  0.25522129    -0.39100
C1643       C  0.92296622  0.48759396  0.24767869     0.19800
C1644       C  0.92347966  0.50585019  0.23229708     0.22400
C1645       C  0.90329095  0.51534723  0.22319636    -0.39600
C1646       C  0.88266135  0.50522974  0.23081854     0.21200
N1647       N  0.86029903  0.48097719  0.25133000    -0.32900
C1648       C  0.84686078  0.49559878  0.23908083    -0.10400
C1649       C  0.86022383  0.51086899  0.22600391    -0.29200
N1650       N  0.94521834  0.51270597  0.22818646    -0.45800
C1651       C  0.95877297  0.49873829  0.24109261    -0.05100
C1652       C  0.94536981  0.48281476  0.25343559    -0.22500
H1653       H  0.90202496  0.46322615  0.26743898     0.19300
H1654       H  0.90359968  0.52977525  0.21131454     0.18100
H1655       H  0.85429242  0.52457868  0.21482702     0.14400
H1656       H  0.95097553  0.46943143  0.26511616     0.14300
H1657       H  0.85489503  0.46800709  0.26267453     0.32500
H1658       H  0.95035137  0.52613787  0.21728845     0.35200
C1659       C  0.83436740  0.49779141  0.51347057     0.20800
C1660       C  0.85409503  0.49008309  0.52505034    -0.39100
C1661       C  0.87488258  0.49168293  0.51258752     0.19800
C1662       C  0.87596056  0.50071095  0.49047639     0.22400
C1663       C  0.85626918  0.50823865  0.47885060    -0.39600
C1664       C  0.83548071  0.50621361  0.49111177     0.21200
N1665       N  0.81237392  0.49655418  0.52084041    -0.32900
C1666       C  0.79949539  0.50385048  0.50286601    -0.10400
C1667       C  0.81326076  0.50999599  0.48406438    -0.29200
N1668       N  0.89763316  0.50024268  0.48227942    -0.45800
C1669       C  0.91050033  0.49054439  0.49912344    -0.05100
C1670       C  0.89689953  0.48493391  0.51831078    -0.22500
H1671       H  0.85323888  0.48281455  0.54225201     0.19300
H1672       H  0.85699845  0.51461106  0.46129418     0.18100
H1673       H  0.80764893  0.51546377  0.46715919     0.14400
H1674       H  0.90241870  0.47718271  0.53434014     0.14300
H1675       H  0.80640868  0.48987378  0.53653652     0.32500
H1676       H  0.90329954  0.50598941  0.46611158     0.35200
C1677       C  0.76208675  0.49537868  0.40911423     0.20800
C1678       C  0.77408157  0.48641837  0.39003304    -0.39100
C1679       C  0.76490287  0.49173917  0.36834450     0.19800
C1680       C  0.74536402  0.50509563  0.36597471     0.22400
C1681       C  0.73340073  0.51406028  0.38502758    -0.39600
C1682       C  0.74252600  0.50864966  0.40667861     0.21200
N1683       N  0.76694320  0.49224838  0.43149745    -0.32900
C1684       C  0.75029419  0.50348807  0.44354606    -0.10400
C1685       C  0.73480865  0.51405859  0.42853109    -0.29200
N1686       N  0.74010411  0.50775232  0.34366206    -0.45800
C1687       C  0.75630705  0.49597790  0.33159121    -0.05100
C1688       C  0.77211495  0.48568617  0.34641555    -0.22500
H1689       H  0.78931358  0.47590672  0.39195742     0.19300
H1690       H  0.71801827  0.52435746  0.38312508     0.18100
H1691       H  0.71957387  0.52382712  0.43291669     0.14400
H1692       H  0.78695486  0.47542253  0.34178773     0.14300
H1693       H  0.78077449  0.48284851  0.43794613     0.32500
H1694       H  0.72628693  0.51709828  0.33703126     0.35200
C1695       C  0.69053959  0.54201471  0.54245873     0.20800
C1696       C  0.67085424  0.54468703  0.55661031    -0.39100
C1697       C  0.66757866  0.56668932  0.56622516     0.19800
C1698       C  0.68297957  0.58441633  0.56223832     0.22400
C1699       C  0.70233047  0.58184666  0.54787844    -0.39600
C1700       C  0.70537504  0.56009170  0.53806145     0.21200
N1701       N  0.69827924  0.52268070  0.53220748    -0.32900
C1702       C  0.71816932  0.52859242  0.52109244    -0.10400
C1703       C  0.72279657  0.55192346  0.52414784    -0.29200
N1704       N  0.67731245  0.60297757  0.57471404    -0.45800
C1705       C  0.65797863  0.59736528  0.58670405    -0.05100
C1706       C  0.65120689  0.57487409  0.58169001    -0.22500
H1707       H  0.65926998  0.53056283  0.56030624     0.19300
H1708       H  0.71447381  0.59567574  0.54498506     0.18100
H1709       H  0.73751149  0.56144337  0.51771411     0.14400
H1710       H  0.63715470  0.56533133  0.58947125     0.14300
H1711       H  0.69045621  0.50655657  0.53295100     0.32500
H1712       H  0.68649935  0.61836439  0.57555156     0.35200
C1713       C  0.75759970  0.41322206  0.50077091     0.20800
C1714       C  0.77166191  0.39379246  0.50340127    -0.39100
C1715       C  0.76139121  0.37267172  0.49828969     0.19800
C1716       C  0.73892206  0.37104348  0.49083980     0.22400
C1717       C  0.72470826  0.39046457  0.48863268    -0.39600
C1718       C  0.73488703  0.41159640  0.49405081     0.21200
N1719       N  0.76361057  0.43528793  0.50357547    -0.32900
C1720       C  0.74451054  0.44778250  0.49904143    -0.10400
C1721       C  0.72616671  0.43367235  0.49314060    -0.29200
N1722       N  0.73345658  0.34904542  0.48651268    -0.45800
C1723       C  0.75249265  0.33657842  0.49154444    -0.05100
C1724       C  0.77023149  0.35070944  0.49905075    -0.22500
H1725       H  0.78936876  0.39505416  0.50880080     0.19300
H1726       H  0.70710300  0.38923506  0.48291847     0.18100
H1727       H  0.70913775  0.43893543  0.48791050     0.14400
H1728       H  0.78728065  0.34558119  0.50436084     0.14300
H1729       H  0.77978917  0.44154705  0.50801003     0.32500
H1730       H  0.71762801  0.34284285  0.48093840     0.35200
C1731       C  0.49788421  0.61253776  0.97942001     0.20800
C1732       C  0.48762456  0.63205235  0.96940018    -0.39100
C1733       C  0.49353847  0.65322467  0.97917946     0.19800
C1734       C  0.50846192  0.65469083  0.99749205     0.22400
C1735       C  0.51873776  0.63522975  0.00745418    -0.39600
C1736       C  0.51288592  0.61412022  0.99769651     0.21200
N1737       N  0.49434703  0.59042942  0.97399599    -0.32900
C1738       C  0.50704930  0.57787281  0.98904624    -0.10400
C1739       C  0.51905786  0.59206144  0.00394209    -0.29200
N1740       N  0.51127428  0.67661734  0.00378214    -0.45800
C1741       C  0.49821027  0.68949818  0.98931055    -0.05100
C1742       C  0.48675273  0.67538288  0.97374396    -0.22500
H1743       H  0.47575577  0.63081458  0.95521863     0.19300
H1744       H  0.53027562  0.63643901  0.02191237     0.18100
H1745       H  0.53013658  0.58691805  0.01794365     0.14400
H1746       H  0.47519754  0.68054594  0.96015816     0.14300
H1747       H  0.48344730  0.58425008  0.96125886     0.32500
H1748       H  0.52152076  0.68211554  0.01730548     0.35200
C1749       C  0.48791098  0.98602778  0.66455343     0.20800
C1750       C  0.47470937  0.98620871  0.64435410    -0.39100
C1751       C  0.48705926  0.98893885  0.62354730     0.19800
C1752       C  0.51077293  0.99083532  0.62293738     0.22400
C1753       C  0.52390509  0.99098579  0.64309835    -0.39600
C1754       C  0.51154200  0.98870283  0.66385631     0.21200
N1755       N  0.48033245  0.98419060  0.68650883    -0.32900
C1756       C  0.49926209  0.98618821  0.69982356    -0.10400
C1757       C  0.51900796  0.98899577  0.68629328    -0.29200
N1758       N  0.51850633  0.99275904  0.60110517    -0.45800
C1759       C  0.49960554  0.99255843  0.58764511    -0.05100
C1760       C  0.47962100  0.99028482  0.60101007    -0.22500
H1761       H  0.45618560  0.98456680  0.64481285     0.19300
H1762       H  0.54240028  0.99294735  0.64266523     0.18100
H1763       H  0.53649632  0.99106517  0.69212508     0.14400
H1764       H  0.46209530  0.98933689  0.59500867     0.14300
H1765       H  0.46331380  0.98242120  0.69211215     0.32500
H1766       H  0.53559444  0.99439995  0.59567263     0.35200
C1767       C  0.59025987  0.97588522  0.74559382     0.20800
C1768       C  0.61052173  0.96441943  0.73883985    -0.39100
C1769       C  0.63077892  0.97760380  0.73927029     0.19800
C1770       C  0.63079426  0.00033097  0.74618911     0.22400
C1771       C  0.61056779  0.01184819  0.75257525    -0.39600
C1772       C  0.59035993  0.99880693  0.75185760     0.21200
N1773       N  0.56870838  0.96742822  0.74634960    -0.32900
C1774       C  0.55509578  0.98524118  0.75281985    -0.10400
C1775       C  0.56794597  0.00507890  0.75626221    -0.29200
N1776       N  0.65221937  0.00887670  0.74599074    -0.45800
C1777       C  0.66605799  0.99161861  0.73866556    -0.05100
C1778       C  0.65330634  0.97182601  0.73413937    -0.22500
H1779       H  0.61051718  0.94658863  0.73364045     0.19300
H1780       H  0.61056193  0.02970292  0.75770103     0.18100
H1781       H  0.56161951  0.02193667  0.76094006     0.14400
H1782       H  0.65974270  0.95526211  0.72865173     0.14300
H1783       H  0.56345376  0.95089978  0.74187727     0.32500
H1784       H  0.65717255  0.02540111  0.75081723     0.35200
C1785       C  0.33707322  0.93739898  0.92275322     0.20800
C1786       C  0.33255221  0.96046823  0.92825603    -0.39100
C1787       C  0.31645308  0.96406644  0.94603736     0.19800
C1788       C  0.30571643  0.94606512  0.95746542     0.22400
C1789       C  0.31032786  0.92298166  0.95205546    -0.39600
C1790       C  0.32641049  0.91938847  0.93423876     0.21200
N1791       N  0.35154414  0.92951482  0.90643451    -0.32900
C1792       C  0.35024445  0.90617727  0.90747358    -0.10400
C1793       C  0.33464553  0.89931413  0.92466884    -0.29200
N1794       N  0.29064508  0.95404533  0.97317844    -0.45800
C1795       C  0.29161409  0.97734282  0.97180971    -0.05100
C1796       C  0.30773691  0.98419747  0.95506001    -0.22500
H1797       H  0.34081313  0.97458866  0.91920411     0.19300
H1798       H  0.30186455  0.90886876  0.96092486     0.18100
H1799       H  0.33008369  0.88190228  0.92955203     0.14400
H1800       H  0.31228854  0.00143539  0.94967047     0.14300
H1801       H  0.36165304  0.93972830  0.89555162     0.32500
H1802       H  0.27998573  0.94424396  0.98397933     0.35200
C1803       C  0.41764092  0.81765355  0.93365537     0.20800
C1804       C  0.42046156  0.80641367  0.95491340    -0.39100
C1805       C  0.43956924  0.79184481  0.95661055     0.19800
C1806       C  0.45467901  0.78846718  0.93845813     0.22400
C1807       C  0.45181388  0.79973088  0.91702067    -0.39600
C1808       C  0.43262750  0.81450389  0.91532424     0.21200
N1809       N  0.40127697  0.83297155  0.92825243    -0.32900
C1810       C  0.40560022  0.83991962  0.90625819    -0.10400
C1811       C  0.42500776  0.82858903  0.89747545    -0.29200
N1812       N  0.47184153  0.77425570  0.94490247    -0.45800
C1813       C  0.46790605  0.76891363  0.96748273    -0.05100
C1814       C  0.44764994  0.77945020  0.97517435    -0.22500
H1815       H  0.40884421  0.80920769  0.96929300     0.19300
H1816       H  0.46380938  0.79744357  0.90286577     0.18100
H1817       H  0.43286370  0.83086536  0.88064805     0.14400
H1818       H  0.43981655  0.77852669  0.99210963     0.14300
H1819       H  0.38791696  0.83834164  0.93908097     0.32500
H1820       H  0.48577374  0.76902742  0.93474501     0.35200
C1821       C  0.46283396  0.93051273  0.80127768     0.20800
C1822       C  0.46097760  0.91116059  0.81603022    -0.39100
C1823       C  0.43859395  0.90554588  0.82374817     0.19800
C1824       C  0.41968510  0.91840863  0.81725261     0.22400
C1825       C  0.42151983  0.93754885  0.80246579    -0.39600
C1826       C  0.44375593  0.94303255  0.79472644     0.21200
N1827       N  0.48210376  0.93978068  0.79200863    -0.32900
C1828       C  0.47521007  0.95831112  0.77931126    -0.10400
C1829       C  0.45133951  0.96072465  0.78066859    -0.29200
N1830       N  0.40075440  0.91127382  0.82856222    -0.45800
C1831       C  0.40736055  0.89375194  0.84257100    -0.05100
C1832       C  0.43087666  0.88938454  0.83981369    -0.22500
H1833       H  0.47591072  0.90156645  0.82156885     0.19300
H1834       H  0.40672555  0.94781561  0.79780013     0.18100
H1835       H  0.44093950  0.97380358  0.77244863     0.14400
H1836       H  0.44125862  0.87757525  0.84978300     0.14300
H1837       H  0.49877313  0.93355993  0.79414401     0.32500
H1838       H  0.38450290  0.91889815  0.82791407     0.35200
C1839       C  0.66633242  0.73987246  0.24674511     0.20800
C1840       C  0.64730726  0.72976670  0.23604232    -0.39100
C1841       C  0.62574295  0.73852942  0.24255718     0.19800
C1842       C  0.62344922  0.75598529  0.25849416     0.22400
C1843       C  0.64242064  0.76596206  0.26924172    -0.39600
C1844       C  0.66391899  0.75721575  0.26273358     0.21200
N1845       N  0.68863033  0.73487539  0.24333388    -0.32900
C1846       C  0.70059351  0.74917339  0.25723555    -0.10400
C1847       C  0.68562435  0.76329785  0.26967667    -0.29200
N1848       N  0.60125365  0.76113672  0.26201638    -0.45800
C1849       C  0.58920621  0.74680597  0.24836605    -0.05100
C1850       C  0.60387105  0.73245961  0.23584022    -0.22500
H1851       H  0.64916909  0.71612533  0.22358150     0.19300
H1852       H  0.64056471  0.77955551  0.28175584     0.18100
H1853       H  0.68991110  0.77647295  0.28195728     0.14400
H1854       H  0.59916459  0.71915712  0.22383546     0.14300
H1855       H  0.69502531  0.72246346  0.23208978     0.32500
H1856       H  0.59468702  0.77343596  0.27333803     0.35200
C1857       C  0.49193989  0.62034585  0.25646947     0.20800
C1858       C  0.48165121  0.60019073  0.26512180    -0.39100
C1859       C  0.49115111  0.57948265  0.25722088     0.19800
C1860       C  0.50944156  0.57892052  0.24187656     0.22400
C1861       C  0.51965533  0.59906049  0.23310796    -0.39600
C1862       C  0.51017683  0.61977133  0.24100766     0.21200
N1863       N  0.48634780  0.64215328  0.26159536    -0.32900
C1864       C  0.50110087  0.65558880  0.24928687    -0.10400
C1865       C  0.51617941  0.64223415  0.23616189    -0.29200
N1866       N  0.51541190  0.55714138  0.23718017    -0.45800
C1867       C  0.50077496  0.54356898  0.24956364    -0.05100
C1868       C  0.48539491  0.55701946  0.26231890    -0.22500
H1869       H  0.46739976  0.60060496  0.27722430     0.19300
H1870       H  0.53400034  0.59862861  0.22111548     0.18100
H1871       H  0.52976922  0.64816256  0.22473921     0.14400
H1872       H  0.47177604  0.55127934  0.27377848     0.14300
H1873       H  0.47328180  0.64756136  0.27276860     0.32500
H1874       H  0.52878244  0.55215027  0.22622182     0.35200
C1875       C  0.49032123  0.75277397  0.08230239     0.20800
C1876       C  0.48287912  0.76380858  0.10245269    -0.39100
C1877       C  0.49158731  0.75493725  0.12315121     0.19800
C1878       C  0.50657991  0.73645906  0.12380851     0.22400
C1879       C  0.51408145  0.72543585  0.10361545    -0.39600
C1880       C  0.50536334  0.73436323  0.08287397     0.21200
N1881       N  0.48461644  0.75807058  0.06050212    -0.32900
C1882       C  0.49618375  0.74300829  0.04690120    -0.10400
C1883       C  0.50927264  0.72789913  0.06036916    -0.29200
N1884       N  0.51200126  0.73111929  0.14571298    -0.45800
C1885       C  0.50029898  0.74629846  0.15906186    -0.05100
C1886       C  0.48746052  0.76144765  0.14556416    -0.22500
H1887       H  0.47110524  0.77822309  0.10205130     0.19300
H1888       H  0.52580371  0.71097810  0.10401475     0.18100
H1889       H  0.52026458  0.71401888  0.05468084     0.14400
H1890       H  0.47632115  0.77517877  0.15140167     0.14300
H1891       H  0.47379038  0.77143049  0.05533286     0.32500
H1892       H  0.52271203  0.71779183  0.15124350     0.35200
C1893       C  0.49709729  0.87011294  0.23671697     0.20800
C1894       C  0.49165346  0.88956631  0.22344424    -0.39100
C1895       C  0.50312012  0.90981560  0.22932809     0.19800
C1896       C  0.51865932  0.91065274  0.24722397     0.22400
C1897       C  0.52400564  0.89123288  0.26060829    -0.39600
C1898       C  0.51268841  0.87092290  0.25456654     0.21200
N1899       N  0.48942062  0.84859819  0.23376775    -0.32900
C1900       C  0.50041499  0.83553845  0.24964579    -0.10400
C1901       C  0.51488737  0.84889885  0.26313504    -0.29200
N1902       N  0.52600930  0.93224133  0.25034065    -0.45800
C1903       C  0.51511539  0.94516788  0.23431816    -0.05100
C1904       C  0.50069825  0.93185283  0.22087106    -0.22500
H1905       H  0.47938782  0.88897332  0.20955910     0.19300
H1906       H  0.53609545  0.89188738  0.27464749     0.18100
H1907       H  0.52631951  0.84309350  0.27659011     0.14400
H1908       H  0.48868614  0.93779494  0.20799950     0.14300
H1909       H  0.47822949  0.84297881  0.22102403     0.32500
H1910       H  0.53650684  0.93812318  0.26355304     0.35200
C1911       C  0.31582388  0.79833931  0.79501613     0.20800
C1912       C  0.33800768  0.80598075  0.80085255    -0.39100
C1913       C  0.33957668  0.81858160  0.82141591     0.19800
C1914       C  0.32048675  0.82289758  0.83507175     0.22400
C1915       C  0.29842326  0.81523617  0.82927533    -0.39600
C1916       C  0.29682129  0.80300300  0.80864887     0.21200
N1917       N  0.30959919  0.78646686  0.77625511    -0.32900
C1918       C  0.28639915  0.78386363  0.77768873    -0.10400
C1919       C  0.27789252  0.79393395  0.79784589    -0.29200
N1920       N  0.32601673  0.83623865  0.85292662    -0.45800
C1921       C  0.34879597  0.84095061  0.85071436    -0.05100
C1922       C  0.35796643  0.82989381  0.83134464    -0.22500
H1923       H  0.35283240  0.80279443  0.78993920     0.19300
H1924       H  0.28346653  0.81906260  0.83979303     0.18100
H1925       H  0.26034484  0.79431616  0.80411978     0.14400
H1926       H  0.37535952  0.83102164  0.82468433     0.14300
H1927       H  0.32047219  0.78052615  0.76317541     0.32500
H1928       H  0.31460298  0.84222436  0.86549946     0.35200
C1929       C  0.99269109  0.73453402  0.61055695     0.20800
C1930       C  0.98300721  0.72384509  0.59140001    -0.39100
C1931       C  0.98674456  0.73500159  0.57022157     0.19800
C1932       C  0.99897122  0.75536628  0.56832171     0.22400
C1933       C  0.00892991  0.76585699  0.58744544    -0.39600
C1934       C  0.00537636  0.75459395  0.60857534     0.21200
N1935       N  0.99152667  0.72746575  0.63258364    -0.32900
C1936       C  0.00373719  0.74304554  0.64462139    -0.10400
C1937       C  0.01272040  0.76016966  0.63026038    -0.29200
N1938       N  0.00091555  0.76199120  0.54619074    -0.45800
C1939       C  0.99005943  0.74561201  0.53397023    -0.05100
C1940       C  0.98111922  0.72843661  0.54827120    -0.22500
H1941       H  0.97354272  0.70787969  0.59283562     0.19300
H1942       H  0.01893712  0.78148063  0.58594048     0.18100
H1943       H  0.02279118  0.77496921  0.63511940     0.14400
H1944       H  0.97277453  0.71267865  0.54315462     0.14300
H1945       H  0.98282452  0.71306195  0.63904317     0.32500
H1946       H  0.01027152  0.77594413  0.53966313     0.35200
C1947       C  0.13380884  0.75503697  0.72669553     0.20800
C1948       C  0.15469271  0.75858597  0.71481403    -0.39100
C1949       C  0.17447654  0.75925993  0.72852406     0.19800
C1950       C  0.17346970  0.75707030  0.75227780     0.22400
C1951       C  0.15267872  0.75309056  0.76408417    -0.39600
C1952       C  0.13298771  0.75195786  0.75035570     0.21200
N1953       N  0.11256233  0.75380693  0.71774224    -0.32900
C1954       C  0.09821024  0.74947896  0.73581642    -0.10400
C1955       C  0.11035846  0.74809437  0.75638930    -0.29200
N1956       N  0.19459838  0.75844516  0.76137500    -0.45800
C1957       C  0.20923372  0.76106995  0.74326658    -0.05100
C1958       C  0.19736212  0.76153517  0.72248143    -0.22500
H1959       H  0.15550378  0.76051120  0.69626724     0.19300
H1960       H  0.15190499  0.75088192  0.78260292     0.18100
H1961       H  0.10345661  0.74515748  0.77353491     0.14400
H1962       H  0.20455373  0.76306482  0.70528143     0.14300
H1963       H  0.10811086  0.75563542  0.70043535     0.32500
H1964       H  0.19890775  0.75681848  0.77873840     0.35200
C1965       C  0.25559256  0.48435965  0.62341197     0.20800
C1966       C  0.25567780  0.46846347  0.60534587    -0.39100
C1967       C  0.25944185  0.47765571  0.58324258     0.19800
C1968       C  0.26234822  0.50099589  0.57941458     0.22400
C1969       C  0.26268338  0.51687635  0.59753395    -0.39600
C1970       C  0.25942112  0.50759176  0.61970934     0.21200
N1971       N  0.25261013  0.47985574  0.64595110    -0.32900
C1972       C  0.25510196  0.50023696  0.65677581    -0.10400
C1973       C  0.25938627  0.51799243  0.64101118    -0.29200
N1974       N  0.26391033  0.50554058  0.55674085    -0.45800
C1975       C  0.26239706  0.48493919  0.54609069    -0.05100
C1976       C  0.25980446  0.46708582  0.56203798    -0.22500
H1977       H  0.25290743  0.45027495  0.60828432     0.19300
H1978       H  0.26520478  0.53509932  0.59457014     0.18100
H1979       H  0.26224265  0.53597985  0.64466849     0.14400
H1980       H  0.25718205  0.44903841  0.55851071     0.14300
H1981       H  0.24982361  0.46376918  0.65359423     0.32500
H1982       H  0.26531032  0.52171980  0.54895378     0.35200
C1983       C  0.25732519  0.63010084  0.75598879     0.20800
C1984       C  0.25884100  0.64971135  0.76975892    -0.39100
C1985       C  0.26118439  0.67061976  0.75786519     0.19800
C1986       C  0.26144465  0.67197384  0.73404425     0.22400
C1987       C  0.26037400  0.65228443  0.72023043    -0.39600
C1988       C  0.25856800  0.63127570  0.73217039     0.21200
N1989       N  0.25532938  0.60822591  0.76321410    -0.32900
C1990       C  0.25592344  0.59531969  0.74392369    -0.10400
C1991       C  0.25795538  0.60901030  0.72418080    -0.29200
N1992       N  0.26282749  0.69399385  0.72699857    -0.45800
C1993       C  0.26390021  0.70662595  0.74649008    -0.05100
C1994       C  0.26304509  0.69266246  0.76607595    -0.22500
H1995       H  0.25831403  0.64874681  0.78838185     0.19300
H1996       H  0.26100556  0.65324544  0.70160915     0.18100
H1997       H  0.25891481  0.60340923  0.70646036     0.14400
H1998       H  0.26299111  0.69800006  0.78389547     0.14300
H1999       H  0.25438693  0.60235694  0.78024781     0.32500
H2000       H  0.26306725  0.70006391  0.71001673     0.35200
C2001       C  0.24794649  0.61062757  0.48375348     0.20800
C2002       C  0.24163071  0.59094996  0.47142309    -0.39100
C2003       C  0.25125382  0.57015495  0.47915101     0.19800
C2004       C  0.26599882  0.56914175  0.49772433     0.22400
C2005       C  0.27218948  0.58875610  0.51008182    -0.39600
C2006       C  0.26260153  0.60948529  0.50237341     0.21200
N2007       N  0.24149855  0.63247432  0.47970645    -0.32900
C2008       C  0.25219366  0.64527892  0.49584525    -0.10400
C2009       C  0.26540960  0.63151667  0.51035495    -0.29200
N2010       N  0.27198190  0.54733060  0.50237023    -0.45800
C2011       C  0.26099919  0.53432605  0.48671080    -0.05100
C2012       C  0.24785566  0.54786382  0.47191414    -0.22500
H2013       H  0.22998309  0.59175060  0.45700924     0.19300
H2014       H  0.28353200  0.58790748  0.52473689     0.18100
H2015       H  0.27605699  0.63696495  0.52449158     0.14400
H2016       H  0.23638204  0.54206331  0.45859587     0.14300
H2017       H  0.23086858  0.63835641  0.46650492     0.32500
H2018       H  0.28217012  0.54152186  0.51594058     0.35200
C2019       C  0.25242630  0.75752226  0.61965314     0.20800
C2020       C  0.24509770  0.77063309  0.63848412    -0.39100
C2021       C  0.25788650  0.76793294  0.65863248     0.19800
C2022       C  0.27655533  0.75322004  0.66000224     0.22400
C2023       C  0.28395441  0.74011098  0.64108682    -0.39600
C2024       C  0.27114681  0.74286978  0.62086081     0.21200
N2025       N  0.24295594  0.75694310  0.59868115    -0.32900
C2026       C  0.25574851  0.74188617  0.58631192    -0.10400
C2027       C  0.27350009  0.73269347  0.59957226    -0.29200
N2028       N  0.28407260  0.75180926  0.68179828    -0.45800
C2029       C  0.27006545  0.76568520  0.69428475    -0.05100
C2030       C  0.25361719  0.77607998  0.68042485    -0.22500
H2031       H  0.23012215  0.78165792  0.63769301     0.19300
H2032       H  0.29822106  0.72820906  0.64221313     0.18100
H2033       H  0.28663524  0.72062648  0.59420243     0.14400
H2034       H  0.23904964  0.78628412  0.68598452     0.14300
H2035       H  0.22891638  0.76657718  0.59299544     0.32500
H2036       H  0.29649963  0.74051346  0.68816722     0.35200
C2037       C  0.12569552  0.73091352  0.47927355     0.20800
C2038       C  0.10698343  0.73000990  0.46415092    -0.39100
C2039       C  0.08531854  0.73443581  0.47403763     0.19800
C2040       C  0.08253819  0.73889090  0.49729496     0.22400
C2041       C  0.10123650  0.74006312  0.51231991    -0.39600
C2042       C  0.12290302  0.73611369  0.50235938     0.21200
N2043       N  0.14807516  0.72802886  0.47407650    -0.32900
C2044       C  0.15962243  0.73187667  0.49387804    -0.10400
C2045       C  0.14449296  0.73695299  0.51190269    -0.29200
N2046       N  0.06024301  0.74184717  0.50261886    -0.45800
C2047       C  0.04874834  0.73973042  0.48257683    -0.05100
C2048       C  0.06374995  0.73513707  0.46430372    -0.22500
H2049       H  0.10915835  0.72635399  0.44600862     0.19300
H2050       H  0.09908538  0.74397957  0.53040820     0.18100
H2051       H  0.14875314  0.74105053  0.52950809     0.14400
H2052       H  0.05937058  0.73201272  0.44652373     0.14300
H2053       H  0.15513366  0.72448141  0.45787437     0.32500
H2054       H  0.05321287  0.74508708  0.51890228     0.35200
C2055       C  0.51683957  0.82881768  0.50812567     0.20800
C2056       C  0.52732430  0.84935570  0.51524994    -0.39100
C2057       C  0.51781477  0.86982372  0.50635005     0.19800
C2058       C  0.49943484  0.86979321  0.49137824     0.22400
C2059       C  0.48910105  0.84932269  0.48420620    -0.39600
C2060       C  0.49847267  0.82895292  0.49320341     0.21200
N2061       N  0.52219367  0.80708769  0.51438857    -0.32900
C2062       C  0.50709734  0.79325346  0.50331465    -0.10400
C2063       C  0.49205833  0.80646499  0.48999165    -0.29200
N2064       N  0.49300782  0.89138561  0.48598027    -0.45800
C2065       C  0.50723587  0.90539222  0.49774639    -0.05100
C2066       C  0.52306763  0.89256095  0.51052296    -0.22500
H2067       H  0.54155531  0.84942194  0.52712369     0.19300
H2068       H  0.47456537  0.84926260  0.47270760     0.18100
H2069       H  0.47806460  0.80067266  0.47939704     0.14400
H2070       H  0.53629793  0.89901196  0.52174679     0.14300
H2071       H  0.53540987  0.80209315  0.52539620     0.32500
H2072       H  0.47941828  0.89627954  0.47537644     0.35200
C2073       C  0.55184723  0.70173279  0.56123616     0.20800
C2074       C  0.56446898  0.70083938  0.58169022    -0.39100
C2075       C  0.57573099  0.67999276  0.58636866     0.19800
C2076       C  0.57450901  0.66123212  0.57195738     0.22400
C2077       C  0.56147403  0.66198490  0.55158303    -0.39600
C2078       C  0.55021838  0.68299591  0.54682540     0.21200
N2079       N  0.54071205  0.72005277  0.55243299    -0.32900
C2080       C  0.53180346  0.71315963  0.53208893    -0.10400
C2081       C  0.53710641  0.68994586  0.52825536    -0.29200
N2082       N  0.58825320  0.64407509  0.57962190    -0.45800
C2083       C  0.59846066  0.65213838  0.59894631    -0.05100
C2084       C  0.59070314  0.67440069  0.60370729    -0.22500
H2085       H  0.56605852  0.71560131  0.59280322     0.19300
H2086       H  0.56068856  0.64754688  0.53996658     0.18100
H2087       H  0.53239355  0.67967797  0.51357089     0.14400
H2088       H  0.59587559  0.68552290  0.61757108     0.14300
H2089       H  0.53925853  0.73619748  0.56003611     0.32500
H2090       H  0.59129416  0.62834043  0.57159793     0.35200
C2091       C  0.49662036  0.73315374  0.41642760     0.20800
C2092       C  0.48230225  0.73081861  0.39729237    -0.39100
C2093       C  0.49225573  0.73649997  0.37594808     0.19800
C2094       C  0.51468117  0.74421481  0.37387263     0.22400
C2095       C  0.52915118  0.74619785  0.39300029    -0.39600
C2096       C  0.51927130  0.74022752  0.41436657     0.21200
N2097       N  0.49073655  0.73024090  0.43863905    -0.32900
C2098       C  0.50979017  0.73517294  0.45083186    -0.10400
C2099       C  0.52805992  0.74133915  0.43636133    -0.29200
N2100       N  0.51989268  0.74887698  0.35174144    -0.45800
C2101       C  0.50079838  0.74367505  0.33962243    -0.05100
C2102       C  0.48317277  0.73592158  0.35412264    -0.22500
H2103       H  0.46461477  0.72525740  0.39894661     0.19300
H2104       H  0.54668990  0.75222054  0.39139443     0.18100
H2105       H  0.54492815  0.74722299  0.44133285     0.14400
H2106       H  0.46612224  0.73042564  0.34931502     0.14300
H2107       H  0.47452129  0.72591977  0.44521495     0.32500
H2108       H  0.53567422  0.75461604  0.34519859     0.35200
C2109       C  0.41745224  0.74489691  0.49518965     0.20800
C2110       C  0.39787809  0.75559561  0.48601937    -0.39100
C2111       C  0.37666841  0.74634692  0.49298298     0.19800
C2112       C  0.37508996  0.72782711  0.50799521     0.22400
C2113       C  0.39472921  0.71715147  0.51728879    -0.39600
C2114       C  0.41601443  0.72644579  0.51026536     0.21200
N2115       N  0.43945250  0.75063949  0.49115215    -0.32900
C2116       C  0.45245896  0.73585024  0.50373203    -0.10400
C2117       C  0.43831848  0.72041999  0.51593803    -0.29200
N2118       N  0.35294191  0.72210927  0.51161760    -0.45800
C2119       C  0.34030764  0.73703112  0.49877375    -0.05100
C2120       C  0.35455694  0.75250130  0.48698866    -0.22500
H2121       H  0.39910018  0.77004611  0.47421869     0.19300
H2122       H  0.39351848  0.70266294  0.52904390     0.18100
H2123       H  0.44354234  0.70669194  0.52743126     0.14400
H2124       H  0.34945041  0.76626141  0.47546711     0.14300
H2125       H  0.44494808  0.76419099  0.48062040     0.32500
H2126       H  0.34679456  0.70875051  0.52209630     0.35200
C2127       C  0.07374944  0.56699057  0.15836325     0.20800
C2128       C  0.05517779  0.55176687  0.16061856    -0.39100
C2129       C  0.05094340  0.54318308  0.18285129     0.19800
C2130       C  0.06405776  0.54942547  0.20151814     0.22400
C2131       C  0.08287325  0.56454116  0.19922779    -0.39600
C2132       C  0.08728194  0.57301200  0.17684054     0.21200
N2133       N  0.08040722  0.57828336  0.13922407    -0.32900
C2134       C  0.09844091  0.59158499  0.14530522    -0.10400
C2135       C  0.10343499  0.58864080  0.16865084    -0.29200
N2136       N  0.05608670  0.53922745  0.22089112    -0.45800
C2137       C  0.03776429  0.52629789  0.21447474    -0.05100
C2138       C  0.03424393  0.52827733  0.19079177    -0.22500
H2139       H  0.04459522  0.54716937  0.14612977     0.19300
H2140       H  0.09312035  0.56954378  0.21382098     0.18100
H2141       H  0.11620795  0.59769388  0.17852353     0.14400
H2142       H  0.02111268  0.51993134  0.18076724     0.14300
H2143       H  0.07272821  0.57741178  0.12306134     0.32500
H2144       H  0.06312659  0.54083419  0.23725316     0.35200
C2145       C  0.33394596  0.72551310  0.24422646     0.20800
C2146       C  0.35346515  0.71819913  0.25632354    -0.39100
C2147       C  0.37426455  0.72866234  0.24976174     0.19800
C2148       C  0.37549943  0.74518732  0.23251517     0.22400
C2149       C  0.35599132  0.75248722  0.22041257    -0.39600
C2150       C  0.33519663  0.74198754  0.22692063     0.21200
N2151       N  0.31198994  0.71949232  0.24834826    -0.32900
C2152       C  0.29919385  0.73210969  0.23351975    -0.10400
C2153       C  0.31301778  0.74639628  0.21991006    -0.29200
N2154       N  0.39718281  0.75273326  0.22976066    -0.45800
C2155       C  0.40989438  0.74089623  0.24531812    -0.05100
C2156       C  0.39618718  0.72570947  0.25812739    -0.22500
H2157       H  0.35246006  0.70560226  0.27011331     0.19300
H2158       H  0.35687093  0.76569575  0.20720346     0.18100
H2159       H  0.30744991  0.75940503  0.20774988     0.14400
H2160       H  0.40156995  0.71398362  0.27160709     0.14300
H2161       H  0.30592362  0.70854080  0.26138317     0.32500
H2162       H  0.40300510  0.76503397  0.21788071     0.35200
C2163       C  0.25842839  0.74526063  0.37093663     0.20800
C2164       C  0.26543777  0.75615104  0.35035446    -0.39100
C2165       C  0.25732610  0.74626965  0.32994458     0.19800
C2166       C  0.24328357  0.72709859  0.33000714     0.22400
C2167       C  0.23624721  0.71625928  0.35053113    -0.39600
C2168       C  0.24435738  0.72608738  0.37089016     0.21200
N2169       N  0.26349533  0.75134921  0.39267469    -0.32900
C2170       C  0.25242691  0.73595346  0.40649767    -0.10400
C2171       C  0.24039779  0.71995114  0.39347785    -0.29200
N2172       N  0.23799009  0.72099216  0.30840309    -0.45800
C2173       C  0.24884233  0.73631015  0.29433743    -0.05100
C2174       C  0.26098560  0.75241055  0.30724698    -0.22500
H2175       H  0.27638055  0.77118736  0.35022430     0.19300
H2176       H  0.22521258  0.70128876  0.35065235     0.18100
H2177       H  0.22990068  0.70583744  0.39974392     0.14400
H2178       H  0.27105965  0.76683356  0.30106384     0.14300
H2179       H  0.27352814  0.76525887  0.39777613     0.32500
H2180       H  0.22781899  0.70706850  0.30364227     0.35200
C2181       C  0.26172184  0.82538508  0.24059968     0.20800
C2182       C  0.27640207  0.84449744  0.24006971    -0.39100
C2183       C  0.26611950  0.86561299  0.24545155     0.19800
C2184       C  0.24305144  0.86745974  0.25122462     0.22400
C2185       C  0.22825832  0.84843073  0.25123631    -0.39600
C2186       C  0.23847675  0.82735673  0.24556389     0.21200
N2187       N  0.26751545  0.80330605  0.23728375    -0.32900
C2188       C  0.24777686  0.79121933  0.23979401    -0.10400
C2189       C  0.22922664  0.80557816  0.24478027    -0.29200
N2190       N  0.23751092  0.88936333  0.25583300    -0.45800
C2191       C  0.25704505  0.90161883  0.25245001    -0.05100
C2192       C  0.27529572  0.88742994  0.24598145    -0.22500
H2193       H  0.29451526  0.84300634  0.23593125     0.19300
H2194       H  0.21017353  0.84990285  0.25551106     0.18100
H2195       H  0.21164722  0.80059779  0.24845514     0.14400
H2196       H  0.29275473  0.89246853  0.24181095     0.14300
H2197       H  0.28392216  0.79677336  0.23388583     0.32500
H2198       H  0.22122986  0.89573837  0.26006000     0.35200
C2199       C  0.19943839  0.68474069  0.20026826     0.20800
C2200       C  0.19426702  0.66303394  0.19098427    -0.39100
C2201       C  0.17513877  0.66228586  0.17627259     0.19800
C2202       C  0.16217120  0.68163508  0.17144076     0.22400
C2203       C  0.16731445  0.70319476  0.18068785    -0.39600
C2204       C  0.18647317  0.70397372  0.19509388     0.21200
N2205       N  0.21722311  0.69042964  0.21383668    -0.32900
C2206       C  0.21582721  0.71355919  0.21695719    -0.10400
C2207       C  0.19659782  0.72242752  0.20559600    -0.29200
N2208       N  0.14561059  0.67686509  0.15627198    -0.45800
C2209       C  0.14796039  0.65426939  0.15103365    -0.05100
C2210       C  0.16616810  0.64453988  0.16337347    -0.22500
H2211       H  0.20466613  0.64799473  0.19449632     0.19300
H2212       H  0.15746833  0.71842630  0.17644919     0.18100
H2213       H  0.19061730  0.73999743  0.20474265     0.14400
H2214       H  0.17263222  0.62712864  0.16239768     0.14300
H2215       H  0.22994060  0.67938854  0.22005981     0.32500
H2216       H  0.13376835  0.68860674  0.14964189     0.35200
C2217       C  0.34068708  0.49970307  0.01217873     0.20800
C2218       C  0.35912035  0.48488155  0.01685206    -0.39100
C2219       C  0.38009483  0.49077657  0.00633688     0.19800
C2220       C  0.38247053  0.50988488  0.99215510     0.22400
C2221       C  0.36408157  0.52478301  0.98759845    -0.39600
C2222       C  0.34313852  0.51896602  0.99820288     0.21200
N2223       N  0.31862144  0.49683328  0.01846807    -0.32900
C2224       C  0.30703935  0.51444278  0.00854246    -0.10400
C2225       C  0.32168127  0.52861825  0.99578176    -0.29200
N2226       N  0.40414945  0.51173031  0.98427826    -0.45800
C2227       C  0.41573226  0.49382622  0.99373568    -0.05100
C2228       C  0.40128476  0.48030060  0.00752118    -0.22500
H2229       H  0.35718522  0.46969326  0.02757977     0.19300
H2230       H  0.36585445  0.53958269  0.97631001     0.18100
H2231       H  0.31694663  0.54286034  0.98468865     0.14400
H2232       H  0.40583324  0.46525517  0.01758222     0.14300
H2233       H  0.31160734  0.48294075  0.02760896     0.32500
H2234       H  0.41082453  0.52481150  0.97376756     0.35200
C2235       C  0.24890713  0.52200372  0.87136037     0.20800
C2236       C  0.23818550  0.53151273  0.89091121    -0.39100
C2237       C  0.24795419  0.52553297  0.91217211     0.19800
C2238       C  0.26698531  0.51136846  0.91366178     0.22400
C2239       C  0.27771894  0.50196704  0.89417252    -0.39600
C2240       C  0.26788427  0.50774531  0.87300869     0.21200
N2241       N  0.24257139  0.52435275  0.84927462    -0.32900
C2242       C  0.25756126  0.51139766  0.83684317    -0.10400
C2243       C  0.27363243  0.50081211  0.85105980    -0.29200
N2244       N  0.27239269  0.50733342  0.93569349    -0.45800
C2245       C  0.25658855  0.51874799  0.94861895    -0.05100
C2246       C  0.24113530  0.53054461  0.93445004    -0.22500
H2247       H  0.22308857  0.54232635  0.88968627     0.19300
H2248       H  0.29235731  0.49054290  0.89545348     0.18100
H2249       H  0.28754274  0.48948814  0.84603211     0.14400
H2250       H  0.22636268  0.54062724  0.93963909     0.14300
H2251       H  0.22877175  0.53400897  0.84306351     0.32500
H2252       H  0.28589186  0.49693819  0.94124086     0.35200
C2253       C  0.21114158  0.56691921  0.04563959     0.20800
C2254       C  0.20432544  0.58929222  0.05142222    -0.39100
C2255       C  0.18874358  0.59103394  0.06992367     0.19800
C2256       C  0.18065852  0.57199810  0.08193882     0.22400
C2257       C  0.18744963  0.54959418  0.07606636    -0.39600
C2258       C  0.20289565  0.54785217  0.05741108     0.21200
N2259       N  0.22547866  0.56064025  0.02851451    -0.32900
C2260       C  0.22626670  0.53733720  0.02912099    -0.10400
C2261       C  0.21236801  0.52879313  0.04706655    -0.29200
N2262       N  0.16437571  0.57814034  0.09736528    -0.45800
C2263       C  0.16180157  0.60117518  0.09481085    -0.05100
C2264       C  0.17689336  0.60980278  0.07803615    -0.22500
H2265       H  0.21018311  0.60420705  0.04178517     0.19300
H2266       H  0.18069830  0.53458581  0.08492997     0.18100
H2267       H  0.20982991  0.51114291  0.05243747     0.14400
H2268       H  0.17761151  0.62718672  0.07127561     0.14300
H2269       H  0.23434205  0.57153698  0.01715033     0.32500
H2270       H  0.15417465  0.56714112  0.10741866     0.35200
C2271       C  0.26680867  0.42537294  0.99819740     0.20800
C2272       C  0.28108097  0.40591834  0.99744604    -0.39100
C2273       C  0.26972174  0.38473837  0.99594238     0.19800
C2274       C  0.24600658  0.38320320  0.99484029     0.22400
C2275       C  0.23174902  0.40260855  0.99605924    -0.39600
C2276       C  0.24307428  0.42371906  0.99794419     0.21200
N2277       N  0.27334143  0.44743385  0.99936918    -0.32900
C2278       C  0.25363541  0.45982191  0.00028318    -0.10400
C2279       C  0.23436570  0.44568009  0.99952746    -0.29200
N2280       N  0.23938487  0.36122217  0.99307820    -0.45800
C2281       C  0.25893242  0.34859585  0.99357428    -0.05100
C2282       C  0.27827227  0.36260253  0.99540842    -0.22500
H2283       H  0.29962348  0.40718653  0.99803162     0.19300
H2284       H  0.21320199  0.40134638  0.99559642     0.18100
H2285       H  0.21648198  0.45082036  0.99964114     0.14400
H2286       H  0.29608424  0.35730423  0.99624965     0.14300
H2287       H  0.29015934  0.45367116  0.99979217     0.32500
H2288       H  0.22254199  0.35509960  0.99226714     0.35200
C2289       C  0.99775168  0.82759717  0.99177014     0.20800
C2290       C  0.98489614  0.84780252  0.99382585    -0.39100
C2291       C  0.99709615  0.86820679  0.99032680     0.19800
C2292       C  0.02028702  0.86854432  0.98476051     0.22400
C2293       C  0.03330391  0.84825706  0.98302760    -0.39600
C2294       C  0.02112548  0.82775231  0.98697885     0.21200
N2295       N  0.98990554  0.80604821  0.99381533    -0.32900
C2296       C  0.00843159  0.79234553  0.99076192    -0.10400
C2297       C  0.02830164  0.80513750  0.98654146    -0.29200
N2298       N  0.02763457  0.89028811  0.98195316    -0.45800
C2299       C  0.00899659  0.90369883  0.98618915    -0.05100
C2300       C  0.98969539  0.89056788  0.99149430    -0.22500
H2301       H  0.96669613  0.84763901  0.99785162     0.19300
H2302       H  0.05148852  0.84842483  0.97893257     0.18100
H2303       H  0.04540104  0.79872849  0.98284957     0.14400
H2304       H  0.97255519  0.89659930  0.99563720     0.14300
H2305       H  0.97296123  0.80091707  0.99699427     0.32500
H2306       H  0.04431803  0.89568112  0.97790497     0.35200
C2307       C  0.99528962  0.74916615  0.90022809     0.20800
C2308       C  0.98632542  0.75990345  0.88049564    -0.39100
C2309       C  0.99540573  0.75236181  0.85938654     0.19800
C2310       C  0.01214468  0.73547275  0.85814099     0.22400
C2311       C  0.02112424  0.72481281  0.87783329    -0.39600
C2312       C  0.01201264  0.73231980  0.89888072     0.21200
N2313       N  0.98952740  0.75319742  0.92228532    -0.32900
C2314       C  0.00269189  0.73880417  0.93516635    -0.10400
C2315       C  0.01695216  0.72552113  0.92102900    -0.29200
N2316       N  0.01785156  0.73120376  0.83616665    -0.45800
C2317       C  0.00467541  0.74543386  0.82323939    -0.05100
C2318       C  0.99042229  0.75895168  0.83709030    -0.22500
H2319       H  0.97322108  0.77308836  0.88150897     0.19300
H2320       H  0.03419913  0.71159520  0.87682931     0.18100
H2321       H  0.02947474  0.71274199  0.92609937     0.14400
H2322       H  0.97806645  0.77174322  0.83159952     0.14300
H2323       H  0.97735571  0.76511182  0.92794960     0.32500
H2324       H  0.02991928  0.71922682  0.83032009     0.35200
C2325       C  0.04275217  0.69699772  0.04552779     0.20800
C2326       C  0.04837344  0.69213518  0.06849346    -0.39100
C2327       C  0.06562540  0.67561645  0.07166562     0.19800
C2328       C  0.07636910  0.66478537  0.05337519     0.22400
C2329       C  0.07046569  0.66937226  0.03042244    -0.39600
C2330       C  0.05327675  0.68594656  0.02724354     0.21200
N2331       N  0.02775846  0.71275996  0.03790912    -0.32900
C2332       C  0.02860233  0.71175893  0.01458831    -0.10400
C2333       C  0.04433141  0.69507966  0.00729614    -0.29200
N2334       N  0.09285687  0.65051639  0.06087216    -0.45800
C2335       C  0.09273406  0.65228322  0.08420607    -0.05100
C2336       C  0.07570370  0.66758337  0.09152055    -0.22500
H2337       H  0.04027197  0.70092246  0.08279592     0.19300
H2338       H  0.07899797  0.66103802  0.01609064     0.18100
H2339       H  0.04913866  0.69045740  0.98991229     0.14400
H2340       H  0.07159474  0.67245846  0.10903601     0.14300
H2341       H  0.01768240  0.72376930  0.04794122     0.32500
H2342       H  0.10322468  0.64022072  0.05044546     0.35200
C2343       C  0.06927759  0.19051324  0.53990767     0.20800
C2344       C  0.09232806  0.18876544  0.54657406    -0.39100
C2345       C  0.09770019  0.16999806  0.56086894     0.19800
C2346       C  0.08143667  0.15399080  0.56785190     0.22400
C2347       C  0.05828958  0.15588040  0.56133106    -0.39600
C2348       C  0.05287002  0.17482872  0.54718917     0.21200
N2349       N  0.05969820  0.20730689  0.52718081    -0.32900
C2350       C  0.03687172  0.20267201  0.52657729    -0.10400
C2351       C  0.03202266  0.18235083  0.53882814    -0.29200
N2352       N  0.09056452  0.13885006  0.58288631    -0.45800
C2353       C  0.11262943  0.14560048  0.58587290    -0.05100
C2354       C  0.11772931  0.16482712  0.57221914    -0.22500
H2355       H  0.10500562  0.20152192  0.54161911     0.19300
H2356       H  0.04532288  0.14391326  0.56742343     0.18100
H2357       H  0.01558168  0.17408869  0.54152774     0.14400
H2358       H  0.13350034  0.17468057  0.57190746     0.14300
H2359       H  0.06809582  0.22144751  0.51978829     0.32500
H2360       H  0.08183284  0.12595545  0.59201175     0.35200
C2361       C  0.33682199  0.00182511  0.50628890     0.20800
C2362       C  0.35690808  0.01333299  0.51254168    -0.39100
C2363       C  0.37739786  0.00421140  0.50369439     0.19800
C2364       C  0.37794991  0.98514915  0.48955506     0.22400
C2365       C  0.35779587  0.97361174  0.48327734    -0.39600
C2366       C  0.33724165  0.98271023  0.49226036     0.21200
N2367       N  0.31524068  0.00695632  0.51278164    -0.32900
C2368       C  0.30164512  0.99098413  0.50285793    -0.10400
C2369       C  0.31484782  0.97553864  0.48991771    -0.29200
N2370       N  0.39975756  0.97948624  0.48413673    -0.45800
C2371       C  0.41305526  0.99497868  0.49514766    -0.05100
C2372       C  0.39970669  0.01071493  0.50736733    -0.22500
H2373       H  0.35663066  0.02811293  0.52376121     0.19300
H2374       H  0.35810777  0.95852888  0.47247075     0.18100
H2375       H  0.30907658  0.96086242  0.48023111     0.14400
H2376       H  0.40558187  0.02466961  0.51804506     0.14300
H2377       H  0.31024366  0.02065897  0.52320562     0.32500
H2378       H  0.40525069  0.96561352  0.47416884     0.35200
C2379       C  0.25787353  0.99871784  0.41942823     0.20800
C2380       C  0.27220665  0.00298938  0.40031993    -0.39100
C2381       C  0.26283771  0.99780357  0.37884174     0.19800
C2382       C  0.24105426  0.98856677  0.37666551     0.22400
C2383       C  0.22666756  0.98438354  0.39578434    -0.39600
C2384       C  0.23584838  0.99005256  0.41725173     0.21200
N2385       N  0.26305153  0.00154202  0.44167302    -0.32900
C2386       C  0.24411279  0.99504179  0.45374309    -0.10400
C2387       C  0.22672642  0.98771079  0.43918898    -0.29200
N2388       N  0.23625255  0.98490848  0.35443874    -0.45800
C2389       C  0.25494880  0.99217692  0.34235448    -0.05100
C2390       C  0.27191615  0.00039160  0.35695619    -0.22500
H2391       H  0.28937631  0.00986270  0.40206342     0.19300
H2392       H  0.20960283  0.97725082  0.39405968     0.18100
H2393       H  0.21023451  0.98048836  0.44405340     0.14400
H2394       H  0.28857540  0.00730120  0.35220405     0.14300
H2395       H  0.27876572  0.00687932  0.44835089     0.32500
H2396       H  0.22100488  0.97827795  0.34785054     0.35200
C2397       C  0.23634354  0.85862133  0.50880456     0.20800
C2398       C  0.22767164  0.87791135  0.52053365    -0.39100
C2399       C  0.23632714  0.89928467  0.51308861     0.19800
C2400       C  0.25228973  0.90109372  0.49538893     0.22400
C2401       C  0.26086884  0.88192101  0.48369328    -0.39600
C2402       C  0.25232241  0.86066939  0.49110627     0.21200
N2403       N  0.23159876  0.83635815  0.51297661    -0.32900
C2404       C  0.24481116  0.82427372  0.49791600    -0.10400
C2405       C  0.25786481  0.83886951  0.48392838    -0.29200
N2406       N  0.25793707  0.92305801  0.49146576    -0.45800
C2407       C  0.24542771  0.93567963  0.50662540    -0.05100
C2408       C  0.23175528  0.92134993  0.52055341    -0.22500
H2409       H  0.21530177  0.87637438  0.53449592     0.19300
H2410       H  0.27348458  0.88344683  0.46994926     0.18100
H2411       H  0.27015812  0.83414573  0.47067747     0.14400
H2412       H  0.21992636  0.92630392  0.53412032     0.14300
H2413       H  0.22052449  0.82977879  0.52565764     0.32500
H2414       H  0.26967427  0.92870262  0.47899529     0.35200
C2415       C  0.17488705  0.06114060  0.57599162     0.20800
C2416       C  0.17350441  0.04385556  0.55912144    -0.39100
C2417       C  0.19455265  0.03368243  0.55247258     0.19800
C2418       C  0.21520166  0.04033639  0.56190934     0.22400
C2419       C  0.21654426  0.05740718  0.57872141    -0.39600
C2420       C  0.19567116  0.06746666  0.58532973     0.21200
N2421       N  0.15768141  0.07401494  0.58489227    -0.32900
C2422       C  0.16768845  0.08864168  0.60000744    -0.10400
C2423       C  0.19141014  0.08485062  0.60064707    -0.29200
N2424       N  0.23287980  0.02912962  0.55213385    -0.45800
C2425       C  0.22372100  0.01514307  0.53599308    -0.05100
C2426       C  0.19970770  0.01729867  0.53600013    -0.22500
H2427       H  0.15734889  0.03897236  0.55148435     0.19300
H2428       H  0.23277983  0.06278154  0.58586096     0.18100
H2429       H  0.20415645  0.09376764  0.61063299     0.14400
H2430       H  0.18776640  0.00870612  0.52477821     0.14300
H2431       H  0.14032943  0.07304931  0.58061545     0.32500
H2432       H  0.25008556  0.03147062  0.55632900     0.35200
C2433       C  0.67170360  0.48031072  0.98163655     0.20800
C2434       C  0.65146123  0.47051210  0.97326494    -0.39100
C2435       C  0.63092044  0.47938615  0.98236173     0.19800
C2436       C  0.63047076  0.49669192  0.99859957     0.22400
C2437       C  0.65076511  0.50657395  0.00691886    -0.39600
C2438       C  0.67135401  0.49766752  0.99778468     0.21200
N2439       N  0.69339528  0.47472028  0.97583016    -0.32900
C2440       C  0.70711823  0.48857606  0.98841377    -0.10400
C2441       C  0.69387823  0.50320710  0.00224022    -0.29200
N2442       N  0.60866282  0.50210609  0.00437506    -0.45800
C2443       C  0.59520818  0.48818035  0.99158562    -0.05100
C2444       C  0.60850922  0.47378216  0.97771114    -0.22500
H2445       H  0.65168307  0.45695888  0.96058978     0.19300
H2446       H  0.65055458  0.52014479  0.01957432     0.18100
H2447       H  0.69971201  0.51627345  0.01396183     0.14400
H2448       H  0.60255027  0.46100808  0.96569463     0.14300
H2449       H  0.69837887  0.46207049  0.96413906     0.32500
H2450       H  0.60328197  0.51460555  0.01607649     0.35200
C2451       C  0.75559522  0.48407905  0.11551391     0.20800
C2452       C  0.74847622  0.47157033  0.09625276    -0.39100
C2453       C  0.75856558  0.47795338  0.07511788     0.19800
C2454       C  0.77436488  0.49564883  0.07325504     0.22400
C2455       C  0.78137461  0.50830236  0.09252951    -0.39600
C2456       C  0.77145516  0.50172854  0.11375754     0.21200
N2457       N  0.74885345  0.48097033  0.13751458    -0.32900
C2458       C  0.76054208  0.49663021  0.15003236    -0.10400
C2459       C  0.77479203  0.50998769  0.13577200    -0.29200
N2460       N  0.78026700  0.49926320  0.05105613    -0.45800
C2461       C  0.76824965  0.48370074  0.03873682    -0.05100
C2462       C  0.75446915  0.47016781  0.05313971    -0.22500
H2463       H  0.73589161  0.45792706  0.09761324     0.19300
H2464       H  0.79356755  0.52228908  0.09108491     0.18100
H2465       H  0.78633707  0.52356973  0.14086943     0.14400
H2466       H  0.74189442  0.45753273  0.04804519     0.14300
H2467       H  0.73728979  0.46860929  0.14369994     0.32500
H2468       H  0.79071014  0.51241735  0.04451675     0.35200
C2469       C  0.99634685  0.47578348  0.62002170     0.20800
C2470       C  0.98819584  0.46536097  0.64041695    -0.39100
C2471       C  0.99579560  0.47522855  0.66097560     0.19800
C2472       C  0.01033146  0.49400816  0.66111362     0.22400
C2473       C  0.01847913  0.50441741  0.64075802    -0.39600
C2474       C  0.01095755  0.49454099  0.62023515     0.21200
N2475       N  0.99147939  0.46986062  0.59828802    -0.32900
C2476       C  0.00311551  0.48492686  0.58458478    -0.10400
C2477       C  0.01550360  0.50056717  0.59765498    -0.29200
N2478       N  0.01461882  0.50053264  0.68274799    -0.45800
C2479       C  0.00269983  0.48589012  0.69670311    -0.05100
C2480       C  0.99078763  0.46975400  0.68363978    -0.22500
H2481       H  0.97666474  0.45077541  0.64028132     0.19300
H2482       H  0.02974120  0.51921384  0.64090442     0.18100
H2483       H  0.02617828  0.51458123  0.59147417     0.14400
H2484       H  0.97967636  0.45607400  0.68975712     0.14300
H2485       H  0.98082017  0.45645677  0.59310108     0.32500
H2486       H  0.02473107  0.51451259  0.68739239     0.44800
C2487       C  0.01343868  0.57896726  0.74883815     0.20800
C2488       C  0.02789790  0.59821799  0.74982360    -0.39100
C2489       C  0.01722207  0.61949634  0.74603971     0.19800
C2490       C  0.99402690  0.62133187  0.74120374     0.22400
C2491       C  0.97949577  0.60213623  0.74067355    -0.39600
C2492       C  0.99007511  0.58089923  0.74489120     0.21200
N2493       N  0.01948347  0.55682363  0.75116494    -0.32900
C2494       C  0.99978437  0.54464418  0.74917537    -0.10400
C2495       C  0.98101657  0.55900025  0.74534724    -0.29200
N2496       N  0.98821660  0.64331248  0.73732536    -0.45800
C2497       C  0.00774855  0.65558546  0.74006512    -0.05100
C2498       C  0.02621383  0.64141029  0.74569616    -0.22500
H2499       H  0.04611928  0.59671380  0.75311750     0.19300
H2500       H  0.96133229  0.60362228  0.73708222     0.18100
H2501       H  0.96336251  0.55402217  0.74248821     0.14400
H2502       H  0.04382457  0.64642773  0.74875489     0.14300
H2503       H  0.03599310  0.55033043  0.75389791     0.32500
H2504       H  0.97190400  0.64962743  0.73333071     0.35200
C2505       C  0.13089365  0.49375058  0.74117514     0.20800
C2506       C  0.11138764  0.48473314  0.73052547    -0.39100
C2507       C  0.09052161  0.48821622  0.74221583     0.19800
C2508       C  0.08919495  0.49949877  0.76311823     0.22400
C2509       C  0.10870305  0.50875923  0.77364175    -0.39600
C2510       C  0.12956842  0.50555759  0.76176710     0.21200
N2511       N  0.15272501  0.49253397  0.73362030    -0.32900
C2512       C  0.16542030  0.50380454  0.74939001    -0.10400
C2513       C  0.15157451  0.51231855  0.76714675    -0.29200
N2514       N  0.06726297  0.50092337  0.77045746    -0.45800
C2515       C  0.05465765  0.49068373  0.75396277    -0.05100
C2516       C  0.06845858  0.48270911  0.73601821    -0.22500
H2517       H  0.11236124  0.47585279  0.71422631     0.19300
H2518       H  0.10768478  0.51793365  0.78977023     0.18100
H2519       H  0.15696936  0.52159321  0.78225527     0.14400
H2520       H  0.06296476  0.47462122  0.72026631     0.14300
H2521       H  0.15865594  0.48434532  0.71875140     0.32500
H2522       H  0.06112723  0.50922329  0.78517803     0.35200
C2523       C  0.95153194  0.29858013  0.95620459     0.20800
C2524       C  0.93523910  0.31630540  0.95547853    -0.39100
C2525       C  0.92779360  0.32274100  0.93350236     0.19800
C2526       C  0.93588513  0.31233684  0.91369826     0.22400
C2527       C  0.95230678  0.29457093  0.91439829    -0.39600
C2528       C  0.95984447  0.28816276  0.93648027     0.21200
N2529       N  0.96122651  0.28951612  0.97506290    -0.32900
C2530       C  0.97594383  0.27304704  0.96747491    -0.10400
C2531       C  0.97565691  0.27186825  0.94340750    -0.29200
N2532       N  0.92604222  0.32178307  0.89500012    -0.45800
C2533       C  0.91162510  0.33839804  0.90293983    -0.05100
C2534       C  0.91231422  0.33937291  0.92698921    -0.22500
H2535       H  0.92884611  0.32452586  0.97093122     0.19300
H2536       H  0.95877880  0.28642609  0.89894023     0.18100
H2537       H  0.98559477  0.26048062  0.93251904     0.14400
H2538       H  0.90292660  0.35058414  0.93846729     0.14300
H2539       H  0.95805430  0.29479939  0.99191535     0.32500
H2540       H  0.92898821  0.31731214  0.87783309     0.35200
C2541       C  0.82419017  0.42183661  0.90433500     0.20800
C2542       C  0.80129012  0.42811721  0.90934286    -0.39100
C2543       C  0.79826060  0.44458547  0.92681695     0.19800
C2544       C  0.81664174  0.45422240  0.93815515     0.22400
C2545       C  0.83942925  0.44790513  0.93324721    -0.39600
C2546       C  0.84243582  0.43129181  0.91609219     0.21200
N2547       N  0.83163227  0.40507726  0.89011978    -0.32900
C2548       C  0.85468713  0.40366698  0.89324821    -0.10400
C2549       C  0.86198403  0.41979465  0.90923976    -0.29200
N2550       N  0.80931416  0.46834307  0.95492255    -0.45800
C2551       C  0.78601432  0.46758788  0.95477106    -0.05100
C2552       C  0.77849605  0.45302141  0.93719209    -0.22500
H2553       H  0.78687132  0.42010731  0.90092995     0.19300
H2554       H  0.85374826  0.45472162  0.94279997     0.18100
H2555       H  0.87913255  0.42182990  0.91599524     0.14400
H2556       H  0.76106579  0.44844627  0.93290432     0.14300
H2557       H  0.82152113  0.39417397  0.88022167     0.32500
H2558       H  0.81957425  0.47733611  0.96644962     0.35200
C2559       C  0.93667083  0.40850789  0.81493207     0.20800
C2560       C  0.95679436  0.41107266  0.80168530    -0.39100
C2561       C  0.96124158  0.43329259  0.79329578     0.19800
C2562       C  0.94689515  0.45169616  0.79787366     0.22400
C2563       C  0.92650143  0.44906232  0.81091492    -0.39600
C2564       C  0.92189420  0.42668654  0.81918087     0.21200
N2565       N  0.92959873  0.38946810  0.82610251    -0.32900
C2566       C  0.91006116  0.39533860  0.83751460    -0.10400
C2567       C  0.90449800  0.41838600  0.83342044    -0.29200
N2568       N  0.95525718  0.47109755  0.78810122    -0.45800
C2569       C  0.97497250  0.46489078  0.77697949    -0.05100
C2570       C  0.97912606  0.44140007  0.77988203    -0.22500
H2571       H  0.96834622  0.39683917  0.79842787     0.19300
H2572       H  0.91524291  0.46341482  0.81462649     0.18100
H2573       H  0.89058094  0.42810841  0.84111979     0.14400
H2574       H  0.99331435  0.43154943  0.77287534     0.14300
H2575       H  0.93802981  0.37360702  0.82660648     0.32500
H2576       H  0.94755015  0.48729533  0.78854438     0.35200
C2577       C  0.83321801  0.33027756  0.81202409     0.20800
C2578       C  0.82662363  0.32672805  0.78900189    -0.39100
C2579       C  0.81267006  0.30734228  0.78511150     0.19800
C2580       C  0.80572551  0.29288123  0.80285469     0.22400
C2581       C  0.81237805  0.29632601  0.82569758    -0.39600
C2582       C  0.82641558  0.31543348  0.82952469     0.21200
N2583       N  0.84756532  0.34646031  0.82019585    -0.32900
C2584       C  0.85016808  0.34148094  0.84292154    -0.10400
C2585       C  0.83707417  0.32236902  0.84931044    -0.29200
N2586       N  0.79245278  0.27587137  0.79495550    -0.45800
C2587       C  0.79084465  0.27913290  0.77188754    -0.05100
C2588       C  0.80336318  0.29869788  0.76506260    -0.22500
H2589       H  0.83223077  0.33797617  0.77512499     0.19300
H2590       H  0.80731713  0.28469398  0.83946857     0.18100
H2591       H  0.83633128  0.31399111  0.86601196     0.14400
H2592       H  0.80509125  0.30602453  0.74796661     0.14300
H2593       H  0.85616493  0.35915803  0.81067500     0.32500
H2594       H  0.78473284  0.26280512  0.80473539     0.35200
C2595       C  0.75647410  0.61774025  0.01014465     0.20800
C2596       C  0.75979003  0.59640487  0.02110149    -0.39100
C2597       C  0.76031654  0.57723180  0.00653845     0.19800
C2598       C  0.75797292  0.57915750  0.98287822     0.22400
C2599       C  0.75420197  0.60039312  0.97200961    -0.39600
C2600       C  0.75344544  0.61950032  0.98656217     0.21200
N2601       N  0.75579805  0.63865602  0.01993383    -0.32900
C2602       C  0.75195776  0.65367674  0.00240734    -0.10400
C2603       C  0.75028082  0.64236174  0.98142589    -0.29200
N2604       N  0.75922399  0.55841969  0.97287420    -0.45800
C2605       C  0.76203238  0.54318186  0.99035474    -0.05100
C2606       C  0.76269930  0.55420730  0.01158503    -0.22500
H2607       H  0.76183165  0.59483888  0.03955921     0.19300
H2608       H  0.75204277  0.60194096  0.95356499     0.18100
H2609       H  0.74767322  0.64996320  0.96457375     0.14400
H2610       H  0.76437894  0.54636289  0.02845136     0.14300
H2611       H  0.75774607  0.64247023  0.03735973     0.32500
H2612       H  0.75741338  0.55475973  0.95539733     0.35200
C2613       C  0.62525151  0.75729801  0.00059115     0.20800
C2614       C  0.60537033  0.77105369  0.00046721    -0.39100
C2615       C  0.58488371  0.75968756  0.99491228     0.19800
C2616       C  0.58432243  0.73635513  0.99034489     0.22400
C2617       C  0.60415431  0.72272062  0.99021794    -0.39600
C2618       C  0.62459878  0.73413703  0.99529448     0.21200
N2619       N  0.64689716  0.76388224  0.00504332    -0.32900
C2620       C  0.66001363  0.74481424  0.00212567    -0.10400
C2621       C  0.64673728  0.72597146  0.99600291    -0.29200
N2622       N  0.56271065  0.72925391  0.98712588    -0.45800
C2623       C  0.54936248  0.74817539  0.98933772    -0.05100
C2624       C  0.56250619  0.76759850  0.99402946    -0.22500
H2625       H  0.60580509  0.78918827  0.00448586     0.19300
H2626       H  0.60367874  0.70451539  0.98651517     0.18100
H2627       H  0.65255647  0.70867758  0.99237420     0.14400
H2628       H  0.55637730  0.78475704  0.99776587     0.14300
H2629       H  0.65249385  0.78040778  0.00911200     0.32500
H2630       H  0.55723813  0.71240362  0.98435367     0.35200
C2631       C  0.87313460  0.75211480  0.99573278     0.20800
C2632       C  0.89276232  0.76239448  0.98610253    -0.39100
C2633       C  0.91373851  0.75260909  0.99255584     0.19800
C2634       C  0.91513751  0.73401775  0.00746021     0.22400
C2635       C  0.89547480  0.72381107  0.01729555    -0.39600
C2636       C  0.87442911  0.73362693  0.01083796     0.21200
N2637       N  0.85118460  0.75785898  0.99177114    -0.32900
C2638       C  0.83836645  0.74300877  0.00453649    -0.10400
C2639       C  0.85222676  0.72764928  0.01672123    -0.29200
N2640       N  0.93709484  0.72735167  0.00993210    -0.45800
C2641       C  0.94975849  0.74177576  0.99637608    -0.05100
C2642       C  0.93568782  0.75787894  0.98546783    -0.22500
H2643       H  0.89175738  0.77670998  0.97413212     0.19300
H2644       H  0.89646661  0.70912164  0.02880319     0.18100
H2645       H  0.84677555  0.71380420  0.02806535     0.14400
H2646       H  0.94054346  0.77142111  0.97354620     0.14300
H2647       H  0.84529599  0.77100215  0.98096643     0.32500
H2648       H  0.94285443  0.71346241  0.01980652     0.35200
C2649       C  0.74797972  0.75956241  0.12967551     0.20800
C2650       C  0.74356242  0.77258300  0.14951170    -0.39100
C2651       C  0.75207817  0.76334504  0.17015925     0.19800
C2652       C  0.76391943  0.74266663  0.17093665     0.22400
C2653       C  0.76859126  0.72987318  0.15112686    -0.39600
C2654       C  0.76019237  0.73913512  0.13055105     0.21200
N2655       N  0.74161112  0.76435738  0.10794021    -0.32900
C2656       C  0.75009641  0.74693244  0.09497469    -0.10400
C2657       C  0.76172974  0.73090315  0.10849897    -0.29200
N2658       N  0.76846704  0.73656765  0.19274035    -0.45800
C2659       C  0.75964390  0.75354921  0.20589164    -0.05100
C2660       C  0.74942428  0.77066110  0.19254793    -0.22500
H2661       H  0.73385729  0.78846241  0.14898026     0.19300
H2662       H  0.77770844  0.71365059  0.15175024     0.18100
H2663       H  0.77040715  0.71542817  0.10288034     0.14400
H2664       H  0.74002408  0.78556621  0.19853585     0.14300
H2665       H  0.73254141  0.77878855  0.10222372     0.32500
H2666       H  0.77618539  0.72134994  0.19843169     0.35200
C2667       C  0.52114922  0.32289605  0.99787867     0.20800
C2668       C  0.53343789  0.34311419  0.99313192    -0.39100
C2669       C  0.52062279  0.36349598  0.99416423     0.19800
C2670       C  0.49748182  0.36374386  0.99998808     0.22400
C2671       C  0.48511843  0.34352037  0.00436900    -0.39600
C2672       C  0.49780804  0.32312993  0.00284098     0.21200
N2673       N  0.52912245  0.30124741  0.99713566    -0.32900
C2674       C  0.51057789  0.28775417  0.00114889    -0.10400
C2675       C  0.49075520  0.30067699  0.00472646    -0.29200
N2676       N  0.48931329  0.38531615  0.00008473    -0.45800
C2677       C  0.50727997  0.39882219  0.99384134    -0.05100
C2678       C  0.52709321  0.38587981  0.98993487    -0.22500
H2679       H  0.55152719  0.34295711  0.98861919     0.19300
H2680       H  0.46689620  0.34363027  0.00829142     0.18100
H2681       H  0.47346920  0.29442780  0.00777864     0.14400
H2682       H  0.54399178  0.39206861  0.98502882     0.14300
H2683       H  0.54582902  0.29593294  0.99311416     0.32500
H2684       H  0.47252534  0.39051789  0.00390940     0.35200
C2685       C  0.38035892  0.23941026  0.98981180     0.20800
C2686       C  0.39932564  0.22720877  0.98121742    -0.39100
C2687       C  0.42025580  0.23145255  0.99211295     0.19800
C2688       C  0.42222622  0.24692845  0.00999381     0.22400
C2689       C  0.40326343  0.25932516  0.01845647    -0.39600
C2690       C  0.38223074  0.25481704  0.00776359     0.21200
N2691       N  0.35851126  0.23787290  0.98282389    -0.32900
C2692       C  0.34631705  0.25229697  0.99649063    -0.10400
C2693       C  0.36050552  0.26325691  0.01223425    -0.29200
N2694       N  0.44418226  0.24845814  0.01678881    -0.45800
C2695       C  0.45614285  0.23369877  0.00328229    -0.05100
C2696       C  0.44188946  0.22293502  0.98756088    -0.22500
H2697       H  0.39787047  0.21521407  0.96714201     0.19300
H2698       H  0.40475481  0.27147237  0.03239488     0.18100
H2699       H  0.35553178  0.27541374  0.02540088     0.14400
H2700       H  0.44691649  0.21139839  0.97386205     0.14300
H2701       H  0.35223093  0.22736221  0.96980030     0.32500
H2702       H  0.45082830  0.25960618  0.02907405     0.35200
C2703       C  0.55399569  0.19440041  0.05323691     0.20800
C2704       C  0.56200684  0.18974435  0.07571209    -0.39100
C2705       C  0.57733964  0.17101821  0.07782191     0.19800
C2706       C  0.58392686  0.15821181  0.05892393     0.22400
C2707       C  0.57614478  0.16297474  0.03665611    -0.39600
C2708       C  0.56102316  0.18150639  0.03457205     0.21200
N2709       N  0.53901823  0.21074346  0.04643572    -0.32900
C2710       C  0.53669324  0.20827174  0.02326219    -0.10400
C2711       C  0.55028415  0.19011261  0.01537437    -0.29200
N2712       N  0.59839555  0.14139970  0.06498862    -0.45800
C2713       C  0.60159372  0.14322717  0.08804164    -0.05100
C2714       C  0.58855878  0.16158838  0.09675348    -0.22500
H2715       H  0.55663211  0.19982662  0.09040132     0.19300
H2716       H  0.58146111  0.15286181  0.02196005     0.18100
H2717       H  0.55194878  0.18352226  0.99809035     0.14400
H2718       H  0.58769271  0.16750531  0.11436139     0.14300
H2719       H  0.53081501  0.22284472  0.05687663     0.32500
H2720       H  0.60553829  0.12946431  0.05367093     0.35200
C2721       C  0.42158449  0.50489611  0.72722428     0.20800
C2722       C  0.40139646  0.51421190  0.71793937    -0.39100
C2723       C  0.38080356  0.50715504  0.72859609     0.19800
C2724       C  0.38032042  0.49189795  0.74701134     0.22400
C2725       C  0.40049392  0.48239364  0.75611887    -0.39600
C2726       C  0.42106837  0.48955325  0.74552191     0.21200
N2727       N  0.44337035  0.50960820  0.72086394    -0.32900
C2728       C  0.45691017  0.49717596  0.73526700    -0.10400
C2729       C  0.44346408  0.48436521  0.75078907    -0.29200
N2730       N  0.35865372  0.48867066  0.75463772    -0.45800
C2731       C  0.34524850  0.50206298  0.74102420    -0.05100
C2732       C  0.35845268  0.51369963  0.72448474    -0.22500
H2733       H  0.40171878  0.52643459  0.70379079     0.19300
H2734       H  0.40023217  0.47067254  0.77068935     0.18100
H2735       H  0.44900348  0.47304191  0.76449702     0.14400
H2736       H  0.35251420  0.52562686  0.71143038     0.14300
H2737       H  0.44853207  0.52083737  0.70770129     0.32500
H2738       H  0.35335756  0.47824291  0.76841578     0.35200
C2739       C  0.50931723  0.50719035  0.82446156     0.20800
C2740       C  0.50314539  0.51811791  0.84511172    -0.39100
C2741       C  0.50559258  0.50485855  0.86527451     0.19800
C2742       C  0.51371169  0.48247544  0.86495341     0.22400
C2743       C  0.51934753  0.47136575  0.84426752    -0.39600
C2744       C  0.51678886  0.48457991  0.82410260     0.21200
N2745       N  0.50827520  0.51593189  0.80294054    -0.32900
C2746       C  0.51490552  0.49865780  0.78882179    -0.10400
C2747       C  0.52015160  0.47881627  0.80135448    -0.29200
N2748       N  0.51519960  0.47387051  0.88648555    -0.45800
C2749       C  0.50765629  0.49080028  0.90059325    -0.05100
C2750       C  0.50141001  0.51033400  0.88797873    -0.22500
H2751       H  0.49694318  0.53566414  0.84546825     0.19300
H2752       H  0.52532796  0.45374307  0.84389369     0.18100
H2753       H  0.52508013  0.46220415  0.79461085     0.14400
H2754       H  0.49512732  0.52653843  0.89460077     0.14300
H2755       H  0.50240580  0.53221899  0.79807249     0.32500
H2756       H  0.52092358  0.45750895  0.89128421     0.35200
C2757       C  0.56779461  0.53783151  0.69309054     0.20800
C2758       C  0.59048437  0.54529489  0.68954265    -0.39100
C2759       C  0.59396776  0.56080968  0.67121318     0.19800
C2760       C  0.57630603  0.56822157  0.65718369     0.22400
C2761       C  0.55348371  0.56087403  0.66089302    -0.39600
C2762       C  0.54993806  0.54549834  0.67949026     0.21200
N2763       N  0.56002043  0.52364248  0.70981466    -0.32900
C2764       C  0.53689540  0.52234959  0.70730919    -0.10400
C2765       C  0.53000340  0.53580909  0.68839962    -0.29200
N2766       N  0.58401295  0.58409931  0.64186819    -0.45800
C2767       C  0.60662286  0.58711096  0.64656976    -0.05100
C2768       C  0.61339260  0.57270495  0.66464221    -0.22500
H2769       H  0.60434553  0.53989160  0.70065731     0.19300
H2770       H  0.53944093  0.56712388  0.65046797     0.18100
H2771       H  0.51284361  0.53830796  0.68186219     0.14400
H2772       H  0.63004957  0.57198620  0.67276806     0.14300
H2773       H  0.56983563  0.51555116  0.72249053     0.32500
H2774       H  0.57419686  0.59346866  0.63009903     0.35200
C2775       C  0.50287689  0.23527417  0.61610397     0.20800
C2776       C  0.49743702  0.22388659  0.59569369    -0.39100
C2777       C  0.49852281  0.23729426  0.57555689     0.19800
C2778       C  0.50420345  0.26039317  0.57562057     0.22400
C2779       C  0.51007531  0.27170978  0.59603639    -0.39600
C2780       C  0.50932200  0.25818689  0.61621137     0.21200
N2781       N  0.50274285  0.22642482  0.63756295    -0.32900
C2782       C  0.50945110  0.24373957  0.65144386    -0.10400
C2783       C  0.51386525  0.26377061  0.63874700    -0.29200
N2784       N  0.50422997  0.26908074  0.55402732    -0.45800
C2785       C  0.49899209  0.25116953  0.54021561    -0.05100
C2786       C  0.49540082  0.23115678  0.55304310    -0.22500
H2787       H  0.49284528  0.20585977  0.59547458     0.19300
H2788       H  0.51498595  0.28964941  0.59619870     0.18100
H2789       H  0.51903782  0.28035569  0.64524213     0.14400
H2790       H  0.49173105  0.21417722  0.54676773     0.14300
H2791       H  0.49829122  0.20968622  0.64247572     0.32500
H2792       H  0.50858967  0.28577883  0.54890292     0.35200
C2793       C  0.63468119  0.24323988  0.75767291     0.20800
C2794       C  0.65404308  0.24254138  0.77198895    -0.39100
C2795       C  0.67512314  0.24795781  0.76127106     0.19800
C2796       C  0.67671149  0.25324734  0.73801128     0.22400
C2797       C  0.65738405  0.25424918  0.72382030    -0.39600
C2798       C  0.63634659  0.24920379  0.73458961     0.21200
N2799       N  0.61268524  0.23894453  0.76359818    -0.32900
C2800       C  0.60030736  0.24257483  0.74420881    -0.10400
C2801       C  0.61447257  0.24903694  0.72579398    -0.29200
N2802       N  0.69868864  0.25631409  0.73159917    -0.45800
C2803       C  0.71122156  0.25331016  0.75090761    -0.05100
C2804       C  0.69720229  0.24819496  0.76986651    -0.22500
H2805       H  0.65280424  0.23799470  0.79006866     0.19300
H2806       H  0.65865901  0.25851973  0.70567444     0.18100
H2807       H  0.60940321  0.25322772  0.70836694     0.14400
H2808       H  0.70254631  0.24399382  0.78720102     0.14300
H2809       H  0.60640356  0.23445740  0.77993315     0.32500
H2810       H  0.70490378  0.25967589  0.71497091     0.35200
C2811       C  0.50512241  0.36654335  0.74708744     0.20800
C2812       C  0.49457768  0.38688849  0.75442178    -0.39100
C2813       C  0.50409270  0.40727568  0.74559985     0.19800
C2814       C  0.52269665  0.40758229  0.73062290     0.22400
C2815       C  0.53327554  0.38716646  0.72320590    -0.39600
C2816       C  0.52371948  0.36667548  0.73203046     0.21200
N2817       N  0.49899450  0.34492546  0.75269661    -0.32900
C2818       C  0.51371831  0.33111043  0.74103628    -0.10400
C2819       C  0.52943762  0.34405202  0.72801762    -0.29200
N2820       N  0.52831982  0.42935581  0.72481449    -0.45800
C2821       C  0.51312903  0.44297456  0.73627029    -0.05100
C2822       C  0.49775552  0.42963867  0.74930049    -0.22500
H2823       H  0.47994951  0.38685922  0.76607656     0.19300
H2824       H  0.54775529  0.38720964  0.71136986     0.18100
H2825       H  0.54298464  0.33773104  0.71683388     0.14400
H2826       H  0.48356744  0.43518292  0.76003550     0.14300
H2827       H  0.48540430  0.33989025  0.76347344     0.32500
H2828       H  0.54172070  0.43451538  0.71387530     0.35200
C2829       C  0.51512411  0.23141710  0.86662796     0.20800
C2830       C  0.52525563  0.22110043  0.88596855    -0.39100
C2831       C  0.51647003  0.22802088  0.90737384     0.19800
C2832       C  0.49895955  0.24398032  0.90931474     0.22400
C2833       C  0.48883248  0.25434682  0.88994062    -0.39600
C2834       C  0.49761399  0.24743342  0.86848338     0.21200
N2835       N  0.52048961  0.22773060  0.84446733    -0.32900
C2836       C  0.50639126  0.24147791  0.83197330    -0.10400
C2837       C  0.49179056  0.25408092  0.84635395    -0.29200
N2838       N  0.49383196  0.24779731  0.93154970    -0.45800
C2839       C  0.50821426  0.23423807  0.94401330    -0.05100
C2840       C  0.52258223  0.22157994  0.92938557    -0.22500
H2841       H  0.53901046  0.20864288  0.88444533     0.19300
H2842       H  0.47517621  0.26690647  0.89148092     0.18100
H2843       H  0.47876222  0.26638205  0.84133133     0.14400
H2844       H  0.53592138  0.20949753  0.93406509     0.14300
H2845       H  0.53307485  0.21650822  0.83821564     0.32500
H2846       H  0.48129059  0.25913163  0.93758339     0.35200
C2847       C  0.50144091  0.11539488  0.73998191     0.20800
C2848       C  0.49621421  0.09485455  0.72867746    -0.39100
C2849       C  0.49685665  0.07482682  0.74225784     0.19800
C2850       C  0.50193952  0.07512281  0.76550155     0.22400
C2851       C  0.50747357  0.09572487  0.77679823    -0.39600
C2852       C  0.50720024  0.11580682  0.76305711     0.21200
N2853       N  0.50191134  0.13668666  0.73078663    -0.32900
C2854       C  0.50832159  0.15086780  0.74798489    -0.10400
C2855       C  0.51192571  0.13845698  0.76837574    -0.29200
N2856       N  0.50231424  0.05353111  0.77419839    -0.45800
C2857       C  0.49791617  0.03951276  0.75617138    -0.05100
C2858       C  0.49436603  0.05218852  0.73606989    -0.22500
H2859       H  0.49230351  0.09444201  0.71049467     0.19300
H2860       H  0.51201522  0.09605289  0.79482874     0.18100
H2861       H  0.51673259  0.14519359  0.78497561     0.14400
H2862       H  0.49138115  0.04559360  0.71896960     0.14300
H2863       H  0.49807753  0.14130782  0.71382878     0.32500
H2864       H  0.50665953  0.04855803  0.79092733     0.35200
C2865       C  0.26398045  0.24998866  0.82794334     0.20800
C2866       C  0.27779700  0.24991563  0.84750890    -0.39100
C2867       C  0.26657074  0.25529072  0.86814413     0.19800
C2868       C  0.24339907  0.26069564  0.86923926     0.22400
C2869       C  0.22948363  0.26060760  0.84961314    -0.39600
C2870       C  0.24067848  0.25486289  0.82893122     0.21200
N2871       N  0.27084663  0.24636756  0.80621136    -0.32900
C2872       C  0.25179922  0.24872344  0.79326830    -0.10400
C2873       C  0.23254294  0.25385955  0.80673001    -0.29200
N2874       N  0.23684921  0.26465057  0.89110510    -0.45800
C2875       C  0.25594730  0.26125555  0.90388535    -0.05100
C2876       C  0.27481096  0.25553170  0.89018850    -0.22500
H2877       H  0.29595256  0.24588321  0.84672546     0.19300
H2878       H  0.21132977  0.26463525  0.85039779     0.18100
H2879       H  0.21534504  0.25772929  0.80089541     0.14400
H2880       H  0.29204884  0.25138130  0.89572676     0.14300
H2881       H  0.28759860  0.24323176  0.80039567     0.32500
H2882       H  0.22026376  0.26831368  0.89707372     0.35200
C2883       C  0.21249183  0.19498908  0.70124315     0.20800
C2884       C  0.20612129  0.17206556  0.69717310    -0.39100
C2885       C  0.18912116  0.16889613  0.68045507     0.19800
C2886       C  0.17925160  0.18717114  0.66882031     0.22400
C2887       C  0.18534571  0.21007022  0.67318281    -0.39600
C2888       C  0.20240243  0.21323403  0.68976160     0.21200
N2889       N  0.22855561  0.20257740  0.71581760    -0.32900
C2890       C  0.22867734  0.22585720  0.71378899    -0.10400
C2891       C  0.21252071  0.23310500  0.69756939    -0.29200
N2892       N  0.16449170  0.17968818  0.65289660    -0.45800
C2893       C  0.16491094  0.15634076  0.65416952    -0.05100
C2894       C  0.17987389  0.14904774  0.67150645    -0.22500
H2895       H  0.21412522  0.15775291  0.70603148     0.19300
H2896       H  0.17770443  0.22436133  0.66397016     0.18100
H2897       H  0.20842938  0.25044286  0.69217203     0.14400
H2898       H  0.18402842  0.13151930  0.67628974     0.14300
H2899       H  0.23872017  0.19255918  0.72672985     0.32500
H2900       H  0.15502202  0.19018418  0.64186484     0.35200
C2901       C  0.26569198  0.33976153  0.74847955     0.20800
C2902       C  0.27742437  0.35899108  0.75691236    -0.39100
C2903       C  0.26682290  0.38029482  0.75297456     0.19800
C2904       C  0.24628960  0.38217237  0.74125358     0.22400
C2905       C  0.23457083  0.36297374  0.73284965    -0.39600
C2906       C  0.24505062  0.34168487  0.73699979     0.21200
N2907       N  0.27200580  0.31765278  0.75031594    -0.32900
C2908       C  0.25523340  0.30529919  0.74004218    -0.10400
C2909       C  0.23810369  0.31977472  0.73147436    -0.29200
N2910       N  0.23991936  0.40422047  0.73936319    -0.45800
C2911       C  0.25635184  0.41655196  0.75008979    -0.05100
C2912       C  0.27348171  0.40225203  0.75887992    -0.22500
H2913       H  0.29353232  0.35744630  0.76597372     0.19300
H2914       H  0.21845142  0.36451393  0.72380499     0.18100
H2915       H  0.22246994  0.31496848  0.72279510     0.14400
H2916       H  0.28890145  0.40725806  0.76783370     0.14300
H2917       H  0.28696739  0.31155817  0.75803984     0.32500
H2918       H  0.22532403  0.41052210  0.73106839     0.35200
C2919       C  0.34380353  0.23639109  0.73269164     0.20800
C2920       C  0.36352364  0.22490504  0.72459198    -0.39100
C2921       C  0.38464422  0.23368859  0.73212242     0.19800
C2922       C  0.38595322  0.25238670  0.74666635     0.22400
C2923       C  0.36628763  0.26379294  0.75476908    -0.39600
C2924       C  0.34525458  0.25506780  0.74719207     0.21200
N2925       N  0.32171046  0.23167788  0.72791860    -0.32900
C2926       C  0.30898692  0.24750075  0.73950578    -0.10400
C2927       C  0.32321907  0.26235592  0.75169540    -0.29200
N2928       N  0.40793454  0.25754613  0.75120931    -0.45800
C2929       C  0.42082410  0.24209308  0.73943059    -0.05100
C2930       C  0.40690522  0.22688554  0.72732614    -0.22500
H2931       H  0.36250956  0.21032595  0.71317169     0.19300
H2932       H  0.36729011  0.27847484  0.76606242     0.18100
H2933       H  0.31839440  0.27679626  0.76230841     0.14400
H2934       H  0.41234518  0.21279736  0.71648181     0.14300
H2935       H  0.31578166  0.21844986  0.71747799     0.32500
H2936       H  0.41380487  0.27084268  0.76161753     0.35200
C2937       C  0.02515809  0.00879609  0.82049601     0.20800
C2938       C  0.02365539  0.02147292  0.84088089    -0.39100
C2939       C  0.02334750  0.00852084  0.86130865     0.19800
C2940       C  0.02504604  0.98476111  0.86149022     0.22400
C2941       C  0.02625371  0.97203697  0.84108346    -0.39600
C2942       C  0.02596270  0.98498137  0.82060800     0.21200
N2943       N  0.02368176  0.01699771  0.79888779    -0.32900
C2944       C  0.02287198  0.99827281  0.78524128    -0.10400
C2945       C  0.02437633  0.97799134  0.79807174    -0.29200
N2946       N  0.02361585  0.97650694  0.88312588    -0.45800
C2947       C  0.02036383  0.99512434  0.89664128    -0.05100
C2948       C  0.02015957  0.01539036  0.88372475    -0.22500
H2949       H  0.02192775  0.04000492  0.84080434     0.19300
H2950       H  0.02647349  0.95342694  0.84113394     0.18100
H2951       H  0.02334698  0.96053878  0.79181473     0.14400
H2952       H  0.01765591  0.03273862  0.88989480     0.14300
H2953       H  0.02173949  0.03416230  0.79383945     0.32500
H2954       H  0.02385717  0.95926824  0.88830259     0.35200
C2955       C  0.92282270  0.01009051  0.73093232     0.20800
C2956       C  0.90243776  0.01751752  0.72053353    -0.39100
C2957       C  0.88202119  0.00928929  0.73058493     0.19800
C2958       C  0.88182751  0.99473310  0.74955477     0.22400
C2959       C  0.90227323  0.98738443  0.76005001    -0.39600
C2960       C  0.92275023  0.99563303  0.74994829     0.21200
N2961       N  0.94441949  0.01480842  0.72404437    -0.32900
C2962       C  0.95839888  0.00322136  0.73869967    -0.10400
C2963       C  0.94539779  0.99114339  0.75519585    -0.29200
N2964       N  0.86011995  0.98892850  0.75539716    -0.45800
C2965       C  0.84645751  0.99990572  0.73999480    -0.05100
C2966       C  0.85954007  0.01282816  0.72434884    -0.22500
H2967       H  0.90247783  0.02863935  0.70550087     0.19300
H2968       H  0.90225912  0.97582539  0.77474712     0.18100
H2969       H  0.95147197  0.98012993  0.76893839     0.14400
H2970       H  0.85341012  0.02326772  0.71016108     0.14300
H2971       H  0.94916361  0.02476439  0.70974702     0.32500
H2972       H  0.85493829  0.97813206  0.76892828     0.35200
C2973       C  0.00282206  0.91072848  0.73929025     0.20800
C2974       C  0.99474094  0.89096719  0.75071099    -0.39100
C2975       C  0.00106392  0.87002012  0.74076572     0.19800
C2976       C  0.01452856  0.86885333  0.72102676     0.22400
C2977       C  0.02254732  0.88866346  0.70955390    -0.39600
C2978       C  0.01613270  0.90966012  0.71948621     0.21200
N2979       N  0.99940550  0.93259724  0.74553659    -0.32900
C2980       C  0.01062626  0.94578905  0.72964007    -0.10400
C2981       C  0.02123553  0.93197372  0.71303124    -0.29200
N2982       N  0.01839996  0.84686607  0.71524718    -0.45800
C2983       C  0.00719124  0.83399696  0.73134978    -0.05100
C2984       C  0.99614845  0.84782202  0.74754405    -0.22500
H2985       H  0.98436320  0.89185190  0.76625038     0.19300
H2986       H  0.03309377  0.88778487  0.69413173     0.18100
H2987       H  0.03148845  0.93738473  0.69833713     0.14400
H2988       H  0.98609783  0.84236010  0.76237842     0.14300
H2989       H  0.99009608  0.93781427  0.76001008     0.32500
H2990       H  0.02804122  0.84098005  0.70121082     0.35200
C2991       C  0.05782384  0.04079245  0.67806698     0.20800
C2992       C  0.07371053  0.04332276  0.65978405    -0.39100
C2993       C  0.08261554  0.06558627  0.65634533     0.19800
C2994       C  0.07631869  0.08381318  0.67024760     0.22400
C2995       C  0.06022985  0.08136449  0.68824668    -0.39600
C2996       C  0.05123218  0.05921270  0.69153288     0.21200
N2997       N  0.04801697  0.02120737  0.68587146    -0.32900
C2998       C  0.03506660  0.02723689  0.70450132    -0.10400
C2999       C  0.03649654  0.05088517  0.70826672    -0.29200
N3000       N  0.08861938  0.10266643  0.66486082    -0.45800
C3001       C  0.10281456  0.09654512  0.64728742    -0.05100
C3002       C  0.09937468  0.07361313  0.64127317    -0.22500
H3003       H  0.07925105  0.02889515  0.64945123     0.19300
H3004       H  0.05560361  0.09552384  0.69936578     0.18100
H3005       H  0.02856832  0.06049399  0.72212322     0.14400
H3006       H  0.10887156  0.06378732  0.62860004     0.14300
H3007       H  0.05060123  0.00482092  0.67913680     0.32500
H3008       H  0.08784676  0.11856510  0.67308400     0.35200
C3009       C  0.75683955  0.83012111  0.75743122     0.20800
C3010       C  0.76668791  0.84989865  0.76699495    -0.39100
C3011       C  0.76081398  0.87082957  0.75638844     0.19800
C3012       C  0.74600991  0.87187565  0.73789423     0.22400
C3013       C  0.73605066  0.85212269  0.72845224    -0.39600
C3014       C  0.74216002  0.83119449  0.73887079     0.21200
N3015       N  0.76079732  0.80818514  0.76352590    -0.32900
C3016       C  0.74880672  0.79502396  0.74857976    -0.10400
C3017       C  0.73673350  0.80888603  0.73307019    -0.29200
N3018       N  0.74342508  0.89366912  0.73063116    -0.45800
C3019       C  0.75672015  0.90671195  0.74446781    -0.05100
C3020       C  0.76785977  0.89305914  0.76082606    -0.22500
H3021       H  0.77847432  0.84898912  0.78128892     0.19300
H3022       H  0.72478263  0.85296190  0.71373952     0.18100
H3023       H  0.72615476  0.80346303  0.71888423     0.14400
H3024       H  0.77941717  0.89863082  0.77417010     0.14300
H3025       H  0.77140561  0.80280216  0.77690975     0.32500
H3026       H  0.73318002  0.89933379  0.71703387     0.35200
C3027       C  0.84070540  0.75150227  0.74536773     0.20800
C3028       C  0.86079829  0.76357554  0.75054484    -0.39100
C3029       C  0.88133402  0.75355311  0.74287100     0.19800
C3030       C  0.88186705  0.73311671  0.73081057     0.22400
C3031       C  0.86170347  0.72096369  0.72568013    -0.39600
C3032       C  0.84110795  0.73099351  0.73346187     0.21200
N3033       N  0.81910666  0.75745190  0.75092855    -0.32900
C3034       C  0.80548306  0.74059716  0.74258883    -0.10400
C3035       C  0.81864602  0.72377250  0.73152997    -0.29200
N3036       N  0.90366496  0.72717587  0.72569954    -0.45800
C3037       C  0.91702501  0.74389068  0.73478080    -0.05100
C3038       C  0.90368571  0.76062084  0.74557268    -0.22500
H3039       H  0.86047208  0.77953732  0.76001086     0.19300
H3040       H  0.86203173  0.70488174  0.71642182     0.18100
H3041       H  0.81268788  0.70823862  0.72338183     0.14400
H3042       H  0.90958151  0.77578932  0.75443380     0.14300
H3043       H  0.81416799  0.77232781  0.75961588     0.32500
H3044       H  0.90912743  0.71247862  0.71697385     0.35200
C3045       C  0.74588966  0.73056961  0.83844511     0.20800
C3046       C  0.73691717  0.72090879  0.85883093    -0.39100
C3047       C  0.74378914  0.73146325  0.87930020     0.19800
C3048       C  0.75857524  0.75009775  0.87948915     0.22400
C3049       C  0.76754425  0.75971936  0.85911995    -0.39600
C3050       C  0.76057520  0.74923396  0.83867472     0.21200
N3051       N  0.74146006  0.72422309  0.81670877    -0.32900
C3052       C  0.75334595  0.73906709  0.80293266    -0.10400
C3053       C  0.76553713  0.75483448  0.81616703    -0.29200
N3054       N  0.76252833  0.75692286  0.90116282    -0.45800
C3055       C  0.75011802  0.74252785  0.91485620    -0.05100
C3056       C  0.73816005  0.72647455  0.90184506    -0.22500
H3057       H  0.72528732  0.70639970  0.85875789     0.19300
H3058       H  0.77895386  0.77440413  0.85916508     0.18100
H3059       H  0.77618347  0.76900309  0.81042223     0.14400
H3060       H  0.72704602  0.71282896  0.90808071     0.14300
H3061       H  0.73072869  0.71081682  0.81172410     0.32500
H3062       H  0.77306034  0.77044240  0.90631016     0.35200
C3063       C  0.71077109  0.70065313  0.69228615     0.20800
C3064       C  0.70455780  0.69613922  0.66936264    -0.39100
C3065       C  0.68930413  0.67766921  0.66627785     0.19800
C3066       C  0.68109735  0.66472312  0.68462546     0.22400
C3067       C  0.68737272  0.66917711  0.70745085    -0.39600
C3068       C  0.70242577  0.68767081  0.71054398     0.21200
N3069       N  0.72481046  0.71726193  0.69990346    -0.32900
C3070       C  0.72540857  0.71495069  0.72320901    -0.10400
C3071       C  0.71155780  0.69655170  0.73041426    -0.29200
N3072       N  0.66640081  0.64857954  0.67743933    -0.45800
C3073       C  0.66494096  0.65110511  0.65418583    -0.05100
C3074       C  0.67916807  0.66912480  0.64663788    -0.22500
H3075       H  0.71091939  0.70639402  0.65504341     0.19300
H3076       H  0.68078306  0.65911219  0.72180605     0.18100
H3077       H  0.70866868  0.69009425  0.74769800     0.14400
H3078       H  0.68137272  0.67540244  0.62916340     0.14300
H3079       H  0.73364314  0.72939493  0.68986246     0.32500
H3080       H  0.65772345  0.63704341  0.68821613     0.35200
C3081       C  0.84389323  0.00175559  0.00006676     0.20800
C3082       C  0.86444879  0.00040370  0.01240152    -0.39100
C3083       C  0.88465008  0.00015943  0.99907279     0.19800
C3084       C  0.88448629  0.00167943  0.97526011     0.22400
C3085       C  0.86385814  0.00256898  0.96286676    -0.39600
C3086       C  0.84358316  0.00230693  0.97621521     0.21200
N3087       N  0.82243662  0.00187613  0.00878762    -0.32900
C3088       C  0.80833455  0.00206221  0.99039230    -0.10400
C3089       C  0.82082068  0.00215381  0.96974858    -0.29200
N3090       N  0.90606098  0.00108914  0.96669237    -0.45800
C3091       C  0.91992248  0.99854895  0.98518681    -0.05100
C3092       C  0.90720223  0.99794090  0.00565098    -0.22500
H3093       H  0.86468277  0.99929734  0.03101711     0.19300
H3094       H  0.86360544  0.00309861  0.94423153     0.18100
H3095       H  0.81411620  0.00208027  0.95241807     0.14400
H3096       H  0.91362531  0.99601631  0.02299984     0.14300
H3097       H  0.81763904  0.00115843  0.02616129     0.32500
H3098       H  0.91101078  0.00162205  0.94935670     0.35200
C3099       C  0.74105293  0.00517545  0.90462734     0.20800
C3100       C  0.73107566  0.01388178  0.88436661    -0.39100
C3101       C  0.74120767  0.00643564  0.86360088     0.19800
C3102       C  0.75974008  0.99147404  0.86314403     0.22400
C3103       C  0.76960222  0.98282730  0.88326012    -0.39600
C3104       C  0.75954441  0.99026349  0.90385169     0.21200
N3105       N  0.73526025  0.00990638  0.92664811    -0.32900
C3106       C  0.75033025  0.99789119  0.93987143    -0.10400
C3107       C  0.76559630  0.98543120  0.92603701    -0.29200
N3108       N  0.76638715  0.98704024  0.84145523    -0.45800
C3109       C  0.75202435  0.99925926  0.82786163    -0.05100
C3110       C  0.73606419  0.01161230  0.84100253    -0.22500
H3111       H  0.71668416  0.02568176  0.88472613     0.19300
H3112       H  0.78419702  0.97127011  0.88292031     0.18100
H3113       H  0.77979058  0.97457836  0.93103997     0.14400
H3114       H  0.72252917  0.02279159  0.83484155     0.14300
H3115       H  0.72213647  0.02084779  0.93221393     0.32500
H3116       H  0.77986803  0.97634209  0.83623691     0.35200
C3117       C  0.74561467  0.91044813  0.00813956     0.20800
C3118       C  0.73476408  0.89102213  0.01760806    -0.39100
C3119       C  0.74308272  0.86981394  0.00982584     0.19800
C3120       C  0.76082257  0.86809971  0.99385795     0.22400
C3121       C  0.77169518  0.88751793  0.98446750    -0.39600
C3122       C  0.76336226  0.90869197  0.99224087     0.21200
N3123       N  0.74051785  0.93256390  0.01217713    -0.32900
C3124       C  0.75509702  0.94500146  0.99863875    -0.10400
C3125       C  0.76968520  0.93060474  0.98607227    -0.29200
N3126       N  0.76549360  0.84601041  0.98921846    -0.45800
C3127       C  0.75066782  0.83359398  0.00241170    -0.05100
C3128       C  0.73638639  0.84781591  0.01546575    -0.22500
H3129       H  0.72079826  0.89232232  0.02997645     0.19300
H3130       H  0.78548812  0.88624273  0.97190229     0.18100
H3131       H  0.78299667  0.93522288  0.97379213     0.14400
H3132       H  0.72299118  0.84272563  0.02751244     0.14300
H3133       H  0.72753343  0.93861828  0.02308133     0.32500
H3134       H  0.77805833  0.83978073  0.97790508     0.35200
C3135       C  0.69414890  0.06896718  0.07448902     0.20800
C3136       C  0.71644235  0.06483121  0.06617017    -0.39100
C3137       C  0.71844960  0.04807596  0.04906082     0.19800
C3138       C  0.69978322  0.03601750  0.04098015     0.22400
C3139       C  0.67739899  0.03988733  0.04957371    -0.39600
C3140       C  0.67533452  0.05699078  0.06653717     0.21200
N3141       N  0.68769921  0.08530523  0.08946002    -0.32900
C3142       C  0.66445105  0.08405322  0.09107720    -0.10400
C3143       C  0.65617875  0.06634895  0.07715269    -0.29200
N3144       N  0.70639786  0.02149830  0.02417954    -0.45800
C3145       C  0.72948394  0.02430941  0.02155422    -0.05100
C3146       C  0.73747767  0.04085697  0.03691325    -0.22500
H3147       H  0.73110986  0.07448151  0.07210366     0.19300
H3148       H  0.66263359  0.03079144  0.04305325     0.18100
H3149       H  0.63841512  0.06164047  0.07449204     0.14400
H3150       H  0.75480351  0.04697861  0.03926958     0.14300
H3151       H  0.69867923  0.09697242  0.09729590     0.32500
H3152       H  0.69592331  0.01017947  0.01516218     0.35200
loop_ 
_geom_bond_atom_site_label_1 
_geom_bond_atom_site_label_2 
_geom_bond_distance 
_geom_bond_site_symmetry_2 
_ccdc_geom_bond_type 
C1            C2   1.547       .  S
C1            C7   1.533   1_545  S
C1            C5   1.549   1_554  S
C1         C3145   1.521       .  S
C2            H9   1.083       .  S
C2            C3   1.361   1_554  D
C3            C4   1.523   1_545  S
C3         C3088   1.473       .  S
C4            C8   1.536       .  S
C4            C6   1.536       .  S
C4           H10   1.101       .  S
C5           H11   1.085       .  S
C5            C6   1.375   1_545  D
C6         C3106   1.489       .  S
C7           H12   1.085       .  S
C7            C8   1.365   1_554  D
C8         C3124   1.479       .  S
C13          C14   1.542       .  S
C13          C19   1.546       .  S
C13          C17   1.534       .  S
C13        C3070   1.519       .  S
C14          H21   1.085       .  S
C14          C15   1.371       .  D
C15          C16   1.536       .  S
C15        C3016   1.488       .  S
C16          C20   1.535       .  S
C16          C18   1.535       .  S
C16          H22   1.098       .  S
C17          H23   1.086       .  S
C17          C18   1.364       .  D
C18        C3034   1.482       .  S
C19          H24   1.082       .  S
C19          C20   1.369       .  D
C20        C3052   1.487       .  S
C25          C26   1.547   1_545  S
C25          C31   1.537       .  S
C25          C29   1.537   1_455  S
C25        C2998   1.519       .  S
C26          H33   1.082       .  S
C26          C27   1.374       .  D
C27          C28   1.536   1_455  S
C27        C2980   1.487       .  S
C28          C32   1.530   1_655  S
C28          C30   1.539   1_565  S
C28          H34   1.103       .  S
C29          H35   1.085       .  S
C29          C30   1.369       .  D
C30        C2962   1.489       .  S
C31          H36   1.086       .  S
C31          C32   1.359   1_545  D
C32        C2944   1.469       .  S
C37          C38   1.544       .  S
C37          C43   1.546       .  S
C37          C41   1.535       .  S
C37        C2890   1.515       .  S
C38          H45   1.085       .  S
C38          C39   1.370       .  D
C39          C40   1.535       .  S
C39        C2926   1.488       .  S
C40          C44   1.534       .  S
C40          C42   1.527       .  S
C40          H46   1.105       .  S
C41          H47   1.086       .  S
C41          C42   1.358       .  D
C42        C2872   1.463       .  S
C43          H48   1.083       .  S
C43          C44   1.370       .  D
C44        C2908   1.483       .  S
O49          C65   1.277       .  A
O49         Zn55   2.053       .  S
C50          O66   1.278       .  A
C50          O63   1.272       .  A
C50        C2818   1.474       .  S
O51          C64   1.276       .  A
O51         Cd58   2.077       .  S
O52          C70   1.273       .  A
O52         Cd61   2.066       .  S
O53          C67   1.275       .  A
O53         Cd57   2.081       .  S
O54          C65   1.271       .  A
O54         Cd57   2.046       .  S
Zn55         O66   2.049       .  S
Zn55         O68   2.031       .  S
Zn55         O60   1.965       .  S
O56          C67   1.275       .  A
O56         Cd61   2.068       .  S
Cd57         O59   2.083       .  S
Cd57         O60   1.997       .  S
Cd58         O62   2.088       .  S
Cd58         O71   2.088       .  S
Cd58         O60   2.008       .  S
O59          C69   1.276       .  A
O60         Cd61   1.998       .  S
Cd61         O63   2.055       .  S
O62          C69   1.277       .  A
C64          O68   1.277       .  A
C64        C2929   1.475       .  S
C65        C2836   1.474       .  S
C67        C2800   1.471       .  S
C69        C2854   1.479       .  S
C70          O71   1.276       .  A
C70        C2782   1.472       .  S
C72          C73   1.545       .  S
C72          C78   1.546       .  S
C72          C76   1.545       .  S
C72        C2764   1.525       .  S
C73          H80   1.082       .  S
C73          C74   1.370       .  D
C74          C75   1.536       .  S
C74        C2728   1.488       .  S
C75          C79   1.533       .  S
C75          C77   1.525       .  S
C75          H81   1.102       .  S
C76          H82   1.086       .  S
C76          C77   1.365       .  D
C77        C2746   1.475       .  S
C78          H83   1.085       .  S
C78          C79   1.370       .  D
C79        C2821   1.488       .  S
C84          C85   1.548   1_554  S
C84          C90   1.542       .  S
C84          C88   1.536       .  S
C84        C2710   1.518       .  S
C85          H92   1.082       .  S
C85          C86   1.371       .  D
C86          C87   1.537       .  S
C86        C2839   1.489       .  S
C87          C91   1.525   1_556  S
C87          C89   1.529       .  S
C87          H93   1.108       .  S
C88          H94   1.086       .  S
C88          C89   1.362   1_554  D
C89        C2674   1.462   1_556  S
C90          H95   1.086       .  S
C90          C91   1.365       .  D
C91        C2695   1.467       .  S
O96         C112   1.274   1_556  A
O96        Zn102   2.023       .  S
C97         O113   1.275   1_554  A
C97         O110   1.275       .  A
C97        C2638   1.468       .  S
O98         C111   1.271       .  A
O98        Cd105   2.050       .  S
O99         C117   1.274       .  A
O99        Cd108   2.087       .  S
O100        C114   1.276       .  A
O100       Cd104   2.084       .  S
O101        C112   1.272       .  A
O101       Cd104   2.053       .  S
Zn102       O113   2.018       .  S
Zn102       O115   2.036       .  S
Zn102       O107   1.954   1_556  S
O103        C114   1.274       .  A
O103       Cd108   2.060       .  S
Cd104       O106   2.074       .  S
Cd104       O107   2.003       .  S
Cd105       O109   2.058       .  S
Cd105       O118   2.055       .  S
Cd105       O107   1.985   1_556  S
O106        C116   1.275       .  A
O107       Cd108   2.001       .  S
Cd108       O110   2.065       .  S
O109        C116   1.274   1_556  A
C111        O115   1.275       .  A
C111       C3055   1.470       .  S
C112       C3127   1.466       .  S
C114       C2656   1.470       .  S
C116       C2620   1.466       .  S
C117        O118   1.271   1_554  A
C117       C2602   1.469       .  S
C119        C120   1.539       .  S
C119        C125   1.532       .  S
C119        C123   1.529       .  S
C119       C2533   1.517       .  S
C120        H127   1.083       .  S
C120        C121   1.365       .  D
C121        C122   1.543       .  S
C121       C2548   1.481       .  S
C122        C126   1.546       .  S
C122        C124   1.547       .  S
C122        H128   1.111       .  S
C123        H129   1.086       .  S
C123        C124   1.367       .  D
C124       C2584   1.483       .  S
C125        H130   1.086       .  S
C125        C126   1.367       .  D
C126       C2566   1.481       .  S
C131        C132   1.543   1_655  S
C131        C137   1.541       .  S
C131        C135   1.544       .  S
C131       C2569   1.519       .  S
C132        H139   1.086       .  S
C132        C133   1.362       .  D
C133        C134   1.525       .  S
C133       C2515   1.466       .  S
C134        C138   1.537       .  S
C134        C136   1.530   1_455  S
C134        H140   1.108       .  S
C135        H141   1.084       .  S
C135        C136   1.367       .  D
C136       C2494   1.470       .  S
C137        H142   1.085       .  S
C137        C138   1.370   1_655  D
C138       C2479   1.487       .  S
C143        C144   1.546       .  S
C143        C149   1.542       .  S
C143        C147   1.544       .  S
C143       C2551   1.524       .  S
C144        H151   1.086   1_556  S
C144        C145   1.365   1_556  D
C145        C146   1.526       .  S
C145       C2461   1.474       .  S
C146        C150   1.528   1_554  S
C146        C148   1.538   1_554  S
C146        H152   1.109       .  S
C147        H153   1.082       .  S
C147        C148   1.371       .  D
C148       C2440   1.487       .  S
C149        H154   1.086       .  S
C149        C150   1.367       .  D
C150       C2605   1.471       .  S
C155        C156   1.542       .  S
C155        C161   1.548       .  S
C155        C159   1.540   1_545  S
C155       C2425   1.524       .  S
C156        H163   1.086       .  S
C156        C157   1.363   1_545  D
C157        C158   1.525       .  S
C157       C2386   1.467       .  S
C158        C162   1.529       .  S
C158        C160   1.539       .  S
C158        H164   1.103       .  S
C159        H165   1.085       .  S
C159        C160   1.372       .  D
C160       C2407   1.485       .  S
C161        H166   1.079       .  S
C161        C162   1.366   1_545  D
C162       C2368   1.485       .  S
C167        C168   1.536       .  S
C167        C173   1.534       .  S
C167        C171   1.533       .  S
C167       C2893   1.522       .  S
C168        H175   1.082       .  S
C168        C169   1.365       .  D
C169        C170   1.543       .  S
C169       C2353   1.480       .  S
C170        C174   1.549       .  S
C170        C172   1.543       .  S
C170        H176   1.109       .  S
C171        H177   1.086       .  S
C171        C172   1.367       .  D
C172       C3001   1.482       .  S
C173        H178   1.084       .  S
C173        C174   1.372       .  D
C174       C2422   1.496       .  S
C179        C180   1.539       .  S
C179        C185   1.535   1_456  S
C179        C183   1.536   1_556  S
C179       C2332   1.507   1_556  S
C180        H187   1.082       .  S
C180        C181   1.370       .  D
C181        C182   1.540   1_455  S
C181       C2314   1.487       .  S
C182        C186   1.540       .  S
C182        C184   1.530   1_655  S
C182        H188   1.104       .  S
C183        H189   1.086       .  S
C183        C184   1.361   1_554  D
C184       C2296   1.465       .  S
C185        H190   1.085       .  S
C185        C186   1.365   1_554  D
C186       C2641   1.483       .  S
C191        C192   1.543       .  S
C191        C197   1.544   1_554  S
C191        C195   1.539       .  S
C191       C2260   1.515       .  S
C192        H199   1.084       .  S
C192        C193   1.362       .  D
C193        C194   1.527   1_554  S
C193       C2278   1.469       .  S
C194        C198   1.540       .  S
C194        C196   1.524   1_556  S
C194        H200   1.106       .  S
C195        H201   1.086       .  S
C195        C196   1.360       .  D
C196       C2224   1.463       .  S
C197        H202   1.085       .  S
C197        C198   1.374       .  D
C198       C2245   1.488       .  S
C203        C204   1.546       .  S
C203        C209   1.541       .  S
C203        C207   1.543       .  S
C203       C2206   1.524       .  S
C204        H211   1.083       .  S
C204        C205   1.361       .  D
C205        C206   1.528       .  S
C205       C2188   1.470       .  S
C206        C210   1.538       .  S
C206        C208   1.529       .  S
C206        H212   1.109       .  S
C207        H213   1.086       .  S
C207        C208   1.365       .  D
C208       C2152   1.471       .  S
C209        H214   1.085       .  S
C209        C210   1.373       .  D
C210       C2173   1.487       .  S
C215        C216   1.536       .  S
C215        C221   1.528       .  S
C215        C219   1.531       .  S
C215       C2335   1.514       .  S
C216        H223   1.084       .  S
C216        C217   1.372       .  D
C217        C218   1.548       .  S
C217       C2209   1.491       .  S
C218        C222   1.546       .  S
C218        C220   1.545       .  S
C218        H224   1.109       .  S
C219        H225   1.083       .  S
C219        C220   1.362       .  D
C220       C2263   1.477       .  S
C221        H226   1.086       .  S
C221        C222   1.364       .  D
C222       C2134   1.481       .  S
C227        C228   1.543       .  S
C227        C233   1.550       .  S
C227        C231   1.541       .  S
C227       C2080   1.526       .  S
C228        H235   1.085       .  S
C228        C229   1.370       .  D
C229        C230   1.538       .  S
C229       C2116   1.494       .  S
C230        C234   1.541       .  S
C230        C232   1.529       .  S
C230        H236   1.103       .  S
C231        H237   1.086       .  S
C231        C232   1.361       .  D
C232       C2098   1.470       .  S
C233        H238   1.083       .  S
C233        C234   1.373       .  D
C234       C2062   1.495       .  S
O239        C255   1.279       .  A
O239       Zn245   2.066       .  S
C240        O256   1.278       .  A
C240        O253   1.273       .  A
C240       C2404   1.471       .  S
O241        C254   1.273       .  A
O241       Cd248   2.063       .  S
O242        C260   1.274       .  A
O242       Cd251   2.070       .  S
O243        C257   1.274       .  A
O243       Cd247   2.073       .  S
O244        C255   1.272       .  A
O244       Cd247   2.049       .  S
Zn245       O256   2.039       .  S
Zn245       O258   2.065       .  S
Zn245       O250   1.964       .  S
O246        C257   1.276       .  A
O246       Cd251   2.085       .  S
Cd247       O249   2.065       .  S
Cd247       O250   1.995       .  S
Cd248       O252   2.076       .  S
Cd248       O261   2.071       .  S
Cd248       O250   2.001       .  S
O249        C259   1.274       .  A
O250       Cd251   2.004       .  S
Cd251       O253   2.059       .  S
O252        C259   1.276       .  A
C254        O258   1.280       .  A
C254       C2119   1.481       .  S
C255       C2170   1.477       .  S
C257       C2044   1.474       .  S
C259       C2008   1.471       .  S
C260        O261   1.274       .  A
C260       C2026   1.472       .  S
O262        C278   1.276       .  A
O262       Zn268   2.034       .  S
C263        O279   1.279       .  A
C263        O276   1.272       .  A
C263       C2242   1.472       .  S
O264        C277   1.271       .  A
O264       Cd271   2.039       .  S
O265        C283   1.275       .  A
O265       Cd274   2.076       .  S
O266        C280   1.274       .  A
O266       Cd270   2.069       .  S
O267        C278   1.276       .  A
O267       Cd270   2.075       .  S
Zn268       O279   2.048       .  S
Zn268       O281   2.042       .  S
Zn268       O273   1.965       .  S
O269        C280   1.274       .  A
O269       Cd274   2.067       .  S
Cd270       O272   2.073       .  S
Cd270       O273   2.000       .  S
Cd271       O275   2.067       .  S
Cd271       O284   2.067       .  S
Cd271       O273   1.989       .  S
O272        C282   1.273       .  A
O273       Cd274   2.001       .  S
Cd274       O276   2.053       .  S
O275        C282   1.273       .  A
C277        O281   1.277       .  A
C277       C2911   1.467       .  S
C278       C2731   1.475       .  S
C280       C1990   1.465       .  S
C282       C1972   1.469       .  S
C283        O284   1.273       .  A
C283       C2512   1.471       .  S
O285        C301   1.276   1_655  A
O285       Zn291   2.031       .  S
C286        O302   1.276   1_455  A
C286        O299   1.274       .  A
C286       C2983   1.469       .  S
O287        C300   1.271       .  A
O287       Cd294   2.065       .  S
O288        C306   1.274       .  A
O288       Cd297   2.059       .  S
O289        C303   1.274       .  A
O289       Cd293   2.075       .  S
O290        C301   1.273       .  A
O290       Cd293   2.053       .  S
Zn291       O302   2.022       .  S
Zn291       O304   2.035       .  S
Zn291       O296   1.950   1_655  S
O292        C303   1.276       .  A
O292       Cd297   2.093       .  S
Cd293       O295   2.070       .  S
Cd293       O296   1.993       .  S
Cd294       O298   2.051       .  S
Cd294       O307   2.058       .  S
Cd294       O296   1.999   1_655  S
O295        C305   1.274       .  A
O296       Cd297   2.001       .  S
Cd297       O299   2.064       .  S
O298        C305   1.272   1_655  A
C300        O304   1.275       .  A
C300       C3037   1.473       .  S
C301       C2317   1.469       .  S
C303       C1954   1.477       .  S
C305       C2497   1.462       .  S
C306        O307   1.273   1_455  A
C306       C1936   1.463       .  S
C308        C309   1.536       .  S
C308        C314   1.548       .  S
C308        C312   1.543       .  S
C308       C1918   1.520       .  S
C309        H316   1.086       .  S
C309        C310   1.366       .  D
C310        C311   1.533       .  S
C310       C1993   1.473       .  S
C311        C315   1.533       .  S
C311        C313   1.527       .  S
C311        H317   1.111       .  S
C312        H318   1.086       .  S
C312        C313   1.364       .  D
C313       C2029   1.466       .  S
C314        H319   1.084       .  S
C314        C315   1.368       .  D
C315       C1957   1.478       .  S
O320        C336   1.276       .  A
O320       Zn326   2.038       .  S
C321        O337   1.276       .  A
C321        O334   1.272       .  A
C321       C1849   1.470       .  S
O322        C335   1.275       .  A
O322       Cd329   2.075       .  S
O323        C341   1.273       .  A
O323       Cd332   2.065       .  S
O324        C338   1.275       .  A
O324       Cd328   2.078       .  S
O325        C336   1.275       .  A
O325       Cd328   2.069       .  S
Zn326       O337   2.036       .  S
Zn326       O339   2.030       .  S
Zn326       O331   1.962       .  S
O327        C338   1.273       .  A
O327       Cd332   2.063       .  S
Cd328       O330   2.078       .  S
Cd328       O331   2.000       .  S
Cd329       O333   2.071       .  S
Cd329       O342   2.080       .  S
Cd329       O331   2.003       .  S
O330        C340   1.276       .  A
O331       Cd332   1.996       .  S
Cd332       O334   2.049       .  S
O333        C340   1.275       .  A
C335        O339   1.276       .  A
C335       C1864   1.475       .  S
C336       C1885   1.476       .  S
C338       C1900   1.470       .  S
C340       C2155   1.474       .  S
C341        O342   1.276       .  A
C341       C2101   1.470       .  S
C343        C344   1.529       .  S
C343        C349   1.531       .  S
C343        C347   1.533       .  S
C343       C1792   1.523       .  S
C344        H351   1.086       .  S
C344        C345   1.368       .  D
C345        C346   1.553       .  S
C345       C1810   1.492       .  S
C346        C350   1.555       .  S
C346        C348   1.550       .  S
C346        H352   1.110       .  S
C347        H353   1.083       .  S
C347        C348   1.364       .  D
C348       C1831   1.486       .  S
C349        H354   1.085       .  S
C349        C350   1.371       .  D
C350       C1921   1.493       .  S
C355        C356   1.546       .  S
C355        C361   1.547       .  S
C355        C359   1.548       .  S
C355       C1828   1.527       .  S
C356        H363   1.086       .  S
C356        C357   1.367       .  D
C357        C358   1.533   1_565  S
C357       C1756   1.482       .  S
C358        C362   1.534       .  S
C358        C360   1.531   1_545  S
C358        H364   1.111       .  S
C359        H365   1.084       .  S
C359        C360   1.368       .  D
C360       C1774   1.476       .  S
C361        H366   1.086   1_565  S
C361        C362   1.367   1_565  D
C362       C2857   1.480       .  S
C367        C368   1.549   1_556  S
C367        C373   1.543       .  S
C367        C371   1.540       .  S
C367       C1813   1.526       .  S
C368        H375   1.082       .  S
C368        C369   1.370       .  D
C369        C370   1.535       .  S
C369       C1882   1.491       .  S
C370        C374   1.536   1_554  S
C370        C372   1.529   1_554  S
C370        H376   1.103       .  S
C371        H377   1.086       .  S
C371        C372   1.362       .  D
C372       C2623   1.469       .  S
C373        H378   1.085       .  S
C373        C374   1.372       .  D
C374       C1741   1.490       .  S
C379        C380   1.543       .  S
C379        C385   1.547       .  S
C379        C383   1.543       .  S
C379       C1702   1.526       .  S
C380        H387   1.085       .  S
C380        C381   1.372       .  D
C381        C382   1.537       .  S
C381       C1684   1.490       .  S
C382        C386   1.528       .  S
C382        C384   1.533       .  S
C382        H388   1.108       .  S
C383        H389   1.084       .  S
C383        C384   1.367       .  D
C384       C1720   1.472       .  S
C385        H390   1.086       .  S
C385        C386   1.363       .  D
C386       C1666   1.474       .  S
O391        C407   1.278       .  A
O391       Zn397   2.039       .  S
C392        O408   1.278       .  A
C392        O405   1.274       .  A
C392       C1648   1.476       .  S
O393        C406   1.270       .  A
O393       Cd400   2.045       .  S
O394        C412   1.275       .  A
O394       Cd403   2.074       .  S
O395        C409   1.274       .  A
O395       Cd399   2.071       .  S
O396        C407   1.273       .  A
O396       Cd399   2.055       .  S
Zn397       O408   2.051       .  S
Zn397       O410   2.069       .  S
Zn397       O402   1.965       .  S
O398        C409   1.277       .  A
O398       Cd403   2.094       .  S
Cd399       O401   2.075       .  S
Cd399       O402   1.997       .  S
Cd400       O404   2.054       .  S
Cd400       O413   2.054       .  S
Cd400       O402   1.994       .  S
O401        C411   1.274       .  A
O402       Cd403   2.004       .  S
Cd403       O405   2.060       .  S
O404        C411   1.271       .  A
C406        O410   1.279       .  A
C406       C1687   1.477       .  S
C407       C1630   1.469       .  S
C409       C2458   1.480       .  S
C411       C1612   1.463       .  S
C412        O413   1.272       .  A
C412       C1594   1.465       .  S
C414        C415   1.548       .  S
C414        C420   1.542       .  S
C414        C418   1.542       .  S
C414       C1558   1.523       .  S
C415        H422   1.086       .  S
C415        C416   1.365       .  D
C416        C417   1.525       .  S
C416       C1540   1.474       .  S
C417        C421   1.534       .  S
C417        C419   1.529       .  S
C417        H423   1.107       .  S
C418        H424   1.084       .  S
C418        C419   1.365       .  D
C419       C1576   1.469       .  S
C420        H425   1.085       .  S
C420        C421   1.371       .  D
C421       C1633   1.485       .  S
O426        C442   1.278       .  A
O426       Zn432   2.053       .  S
C427        O443   1.277       .  A
C427        O440   1.273   1_565  A
C427       C3109   1.468       .  S
O428        C441   1.272       .  A
O428       Cd435   2.055       .  S
O429        C447   1.274   1_545  A
O429       Cd438   2.070       .  S
O430        C444   1.274       .  A
O430       Cd434   2.080       .  S
O431        C442   1.274   1_545  A
O431       Cd434   2.062       .  S
Zn432       O443   2.025       .  S
Zn432       O445   2.059       .  S
Zn432       O437   1.962       .  S
O433        C444   1.274       .  A
O433       Cd438   2.077       .  S
Cd434       O436   2.072       .  S
Cd434       O437   1.997   1_545  S
Cd435       O439   2.069       .  S
Cd435       O448   2.082       .  S
Cd435       O437   2.000       .  S
O436        C446   1.276   1_545  A
O437       Cd438   2.002   1_565  S
Cd438       O440   2.057       .  S
O439        C446   1.275       .  A
C441        O445   1.278       .  A
C441       C3019   1.477       .  S
C442       C2965   1.477       .  S
C444       C1522   1.476       .  S
C446       C1504   1.468       .  S
C447        O448   1.275       .  A
C447       C1777   1.474       .  S
C449        C450   1.542       .  S
C449        C455   1.542       .  S
C449        C453   1.545       .  S
C449       C2587   1.519       .  S
C450        H457   1.086       .  S
C450        C451   1.365       .  D
C451        C452   1.533       .  S
C451       C1525   1.476       .  S
C452        C456   1.526       .  S
C452        C454   1.539       .  S
C452        H458   1.107       .  S
C453        H459   1.083       .  S
C453        C454   1.373       .  D
C454       C1486   1.490       .  S
C455        H460   1.086       .  S
C455        C456   1.363       .  D
C456       C2803   1.470       .  S
O461        C477   1.279       .  A
O461       Zn467   2.059       .  S
C462        O478   1.279       .  A
C462        O475   1.272       .  A
C462       C1489   1.473       .  S
O463        C476   1.272       .  A
O463       Cd470   2.054       .  S
O464        C482   1.273       .  A
O464       Cd473   2.064       .  S
O465        C479   1.273       .  A
O465       Cd469   2.067       .  S
O466        C477   1.272       .  A
O466       Cd469   2.054       .  S
Zn467       O478   2.050       .  S
Zn467       O480   2.058       .  S
Zn467       O472   1.966       .  S
O468        C479   1.273       .  A
O468       Cd473   2.065       .  S
Cd469       O471   2.064       .  S
Cd469       O472   1.999       .  S
Cd470       O474   2.068       .  S
Cd470       O483   2.085       .  S
Cd470       O472   1.994       .  S
O471        C481   1.274       .  A
O472       Cd473   1.997       .  S
Cd473       O475   2.051       .  S
O474        C481   1.274       .  A
C476        O480   1.278       .  A
C476       C1432   1.477       .  S
C477       C1450   1.477       .  S
C479       C1468   1.470       .  S
C481       C1579   1.465       .  S
C482        O483   1.276       .  A
C482       C1723   1.472       .  S
C484        C485   1.528       .  S
C484        C490   1.530       .  S
C484        C488   1.532       .  S
C484       C1360   1.518       .  S
C485        H492   1.083       .  S
C485        C486   1.371       .  D
C486        C487   1.557       .  S
C486       C1378   1.504       .  S
C487        C491   1.554       .  S
C487        C489   1.546       .  S
C487        H493   1.110       .  S
C488        H494   1.083       .  S
C488        C489   1.364       .  D
C489       C1414   1.478       .  S
C490        H495   1.087       .  S
C490        C491   1.367       .  D
C491       C1396   1.488       .  S
C496        C497   1.555   1_565  S
C496        C502   1.545       .  S
C496        C500   1.536       .  S
C496       C1399   1.525       .  S
C497        H504   1.085       .  S
C497        C498   1.377       .  D
C498        C499   1.532       .  S
C498       C1453   1.492       .  S
C499        C503   1.529   1_545  S
C499        C501   1.527   1_545  S
C499        H505   1.107       .  S
C500        H506   1.086       .  S
C500        C501   1.361       .  D
C501       C1507   1.468       .  S
C502        H507   1.084       .  S
C502        C503   1.364       .  D
C503       C1345   1.471       .  S
C508        C509   1.541       .  S
C508        C514   1.546       .  S
C508        C512   1.550   1_655  S
C508       C1381   1.529       .  S
C509        H516   1.086       .  S
C509        C510   1.362       .  D
C510        C511   1.525   1_655  S
C510       C1939   1.465       .  S
C511        C515   1.535   1_455  S
C511        C513   1.527       .  S
C511        H517   1.108       .  S
C512        H518   1.083       .  S
C512        C513   1.365       .  D
C513       C2047   1.473       .  S
C514        H519   1.085       .  S
C514        C515   1.376       .  D
C515       C1327   1.489       .  S
C520        C521   1.541       .  S
C520        C526   1.538       .  S
C520        C524   1.542       .  S
C520       C1417   1.514       .  S
C521        H528   1.085       .  S
C521        C522   1.373       .  D
C522        C523   1.536       .  S
C522       C1846   1.487       .  S
C523        C527   1.530       .  S
C523        C525   1.528       .  S
C523        H529   1.108       .  S
C524        H530   1.084       .  S
C524        C525   1.363       .  D
C525       C1597   1.464       .  S
C526        H531   1.086       .  S
C526        C527   1.358       .  D
C527       C2659   1.462       .  S
C532        C533   1.541       .  S
C532        C538   1.548       .  S
C532        C536   1.541       .  S
C532       C1309   1.527       .  S
C533        H540   1.086       .  S
C533        C534   1.363       .  D
C534        C535   1.528       .  S
C534       C2011   1.468       .  S
C535        C539   1.541       .  S
C535        C537   1.533       .  S
C535        H541   1.108       .  S
C536        H542   1.086       .  S
C536        C537   1.367       .  D
C537       C1975   1.475       .  S
C538        H543   1.082       .  S
C538        C539   1.373       .  D
C539       C1291   1.496       .  S
O544        C560   1.279       .  A
O544       Zn550   2.058       .  S
C545        O561   1.277   1_556  A
C545        O558   1.273       .  A
C545       C2443   1.475       .  S
O546        C559   1.270       .  A
O546       Cd553   2.043       .  S
O547        C565   1.277       .  A
O547       Cd556   2.094       .  S
O548        C562   1.274   1_554  A
O548       Cd552   2.067       .  S
O549        C560   1.275       .  A
O549       Cd552   2.076       .  S
Zn550       O561   2.047       .  S
Zn550       O563   2.049       .  S
Zn550       O555   1.962   1_554  S
O551        C562   1.274       .  A
O551       Cd556   2.064       .  S
Cd552       O554   2.068       .  S
Cd552       O555   2.004   1_554  S
Cd553       O557   2.066       .  S
Cd553       O566   2.060       .  S
Cd553       O555   1.996       .  S
O554        C564   1.274   1_554  A
O555       Cd556   2.001       .  S
Cd556       O558   2.057       .  S
O557        C564   1.274       .  A
C559        O563   1.278   1_556  A
C559       C1738   1.471       .  S
C560       C1270   1.482       .  S
C562       C2677   1.463       .  S
C564       C2227   1.468       .  S
C565        O566   1.272       .  A
C565       C2749   1.475       .  S
C567        C568   1.550       .  S
C567        C573   1.537       .  S
C567        C571   1.542       .  S
C567       C1252   1.523       .  S
C568        H575   1.085       .  S
C568        C569   1.375       .  D
C569        C570   1.535       .  S
C569       C1273   1.495       .  S
C570        C574   1.538       .  S
C570        C572   1.526       .  S
C570        H576   1.102       .  S
C571        H577   1.084       .  S
C571        C572   1.361       .  D
C572       C1615   1.465       .  S
C573        H578   1.085       .  S
C573        C574   1.369       .  D
C574       C1867   1.489       .  S
C579        C580   1.524       .  S
C579        C585   1.523       .  S
C579        C583   1.535       .  S
C579       C1237   1.518       .  S
C580        H587   1.087       .  S
C580        C581   1.367       .  D
C581        C582   1.559       .  S
C581       C1255   1.488       .  S
C582        C586   1.561       .  S
C582        C584   1.552       .  S
C582        H588   1.110       .  S
C583        H589   1.081       .  S
C583        C584   1.365       .  D
C584       C1216   1.492       .  S
C585        H590   1.083       .  S
C585        C586   1.369       .  D
C586       C1306   1.502       .  S
C591        C592   1.545       .  S
C591        C597   1.538       .  S
C591        C595   1.547       .  S
C591       C1219   1.525       .  S
C592        H599   1.086       .  S
C592        C593   1.363       .  D
C593        C594   1.529       .  S
C593       C1201   1.474       .  S
C594        C598   1.542       .  S
C594        C596   1.533       .  S
C594        H600   1.108       .  S
C595        H601   1.084       .  S
C595        C596   1.368       .  D
C596       C2785   1.476       .  S
C597        H602   1.085       .  S
C597        C598   1.372       .  D
C598       C1435   1.491       .  S
O603        C619   1.277       .  A
O603       Zn609   2.049       .  S
C604        O620   1.278       .  A
C604        O617   1.273       .  A
C604       C2065   1.478       .  S
O605        C618   1.273   1_545  A
O605       Cd612   2.048       .  S
O606        C624   1.276       .  A
O606       Cd615   2.088       .  S
O607        C621   1.276   1_545  A
O607       Cd611   2.084       .  S
O608        C619   1.274   1_545  A
O608       Cd611   2.070       .  S
Zn609       O620   2.051       .  S
Zn609       O622   2.039       .  S
Zn609       O614   1.969       .  S
O610        C621   1.273       .  A
O610       Cd615   2.060       .  S
Cd611       O613   2.072       .  S
Cd611       O614   2.000   1_545  S
Cd612       O616   2.086       .  S
Cd612       O625   2.088       .  S
Cd612       O614   2.003   1_545  S
O613        C623   1.274       .  A
O614       Cd615   1.999       .  S
Cd615       O617   2.065       .  S
O616        C623   1.276       .  A
C618        O622   1.277       .  A
C618       C2371   1.469       .  S
C619       C1180   1.478       .  S
C621       C1342   1.467       .  S
C623       C1198   1.475       .  S
C624        O625   1.276   1_565  A
C624       C1759   1.476       .  S
C626        C627   1.541   1_545  S
C626        C632   1.542       .  S
C626        C630   1.543       .  S
C626       C1144   1.518       .  S
C627        H634   1.086       .  S
C627        C628   1.361       .  D
C628        C629   1.525       .  S
C628       C1903   1.462       .  S
C629        C633   1.536       .  S
C629        C631   1.529       .  S
C629        H635   1.108       .  S
C630        H636   1.083       .  S
C630        C631   1.363   1_545  D
C631       C1162   1.467       .  S
C632        H637   1.085       .  S
C632        C633   1.373   1_545  D
C633       C1183   1.489       .  S
C638        C639   1.545       .  S
C638        C644   1.546   1_455  S
C638        C642   1.538       .  S
C638       C2137   1.519       .  S
C639        H646   1.083       .  S
C639        C640   1.362       .  D
C640        C641   1.527   1_455  S
C640       C1111   1.468       .  S
C641        C645   1.537       .  S
C641        C643   1.527   1_655  S
C641        H647   1.108       .  S
C642        H648   1.086       .  S
C642        C643   1.362       .  D
C643       C1126   1.461       .  S
C644        H649   1.085       .  S
C644        C645   1.373       .  D
C645       C1651   1.490       .  S
O650        C666   1.278       .  A
O650       Zn656   2.056       .  S
C651        O667   1.277       .  A
C651        O664   1.274   1_455  A
C651       C1324   1.476   1_455  S
O652        C665   1.274   1_655  A
O652       Cd659   2.066       .  S
O653        C671   1.274       .  A
O653       Cd662   2.073       .  S
O654        C668   1.276       .  A
O654       Cd658   2.086       .  S
O655        C666   1.274       .  A
O655       Cd658   2.071       .  S
Zn656       O667   2.045       .  S
Zn656       O669   2.028       .  S
Zn656       O661   1.961       .  S
O657        C668   1.274   1_655  A
O657       Cd662   2.061       .  S
Cd658       O660   2.080       .  S
Cd658       O661   2.004       .  S
Cd659       O663   2.081       .  S
Cd659       O672   2.091       .  S
Cd659       O661   2.007   1_655  S
O660        C670   1.276       .  A
O661       Cd662   1.999   1_455  S
Cd662       O664   2.066       .  S
O663        C670   1.276   1_655  A
C665        O669   1.276       .  A
C665       C2476   1.471       .  S
C666       C1288   1.482       .  S
C668       C1108   1.472       .  S
C670       C1090   1.473       .  S
C671        O672   1.277       .  A
C671       C1669   1.477       .  S
C673        C674   1.542       .  S
C673        C679   1.540       .  S
C673        C677   1.547   1_455  S
C673       C2350   1.518       .  S
C674        H681   1.086       .  S
C674        C675   1.366       .  D
C675        C676   1.531   1_455  S
C675       C1093   1.472       .  S
C676        C680   1.536   1_655  S
C676        C678   1.524       .  S
C676        H682   1.112       .  S
C677        H683   1.084       .  S
C677        C678   1.362       .  D
C678       C1471   1.465       .  S
C679        H684   1.086       .  S
C679        C680   1.367       .  D
C680       C1072   1.477       .  S
C685        C686   1.539       .  S
C685        C691   1.540   1_556  S
C685        C689   1.545   1_565  S
C685       C1795   1.519       .  S
C686        H693   1.085       .  S
C686        C687   1.367   1_565  D
C687        C688   1.534   1_556  S
C687       C1036   1.485       .  S
C688        C692   1.532       .  S
C688        C690   1.533   1_554  S
C688        H694   1.097       .  S
C689        H695   1.082       .  S
C689        C690   1.368       .  D
C690       C1018   1.483       .  S
C691        H696   1.085       .  S
C691        C692   1.368   1_565  D
C692       C1057   1.484       .  S
O697        C713   1.275   1_544  A
O697       Zn703   2.031       .  S
C698        O714   1.275       .  A
C698        O711   1.271   1_455  A
C698        C985   1.463       .  S
O699        C712   1.272   1_655  A
O699       Cd706   2.057       .  S
O700        C718   1.276   1_545  A
O700       Cd709   2.087       .  S
O701        C715   1.273       .  A
O701       Cd705   2.065       .  S
O702        C713   1.271       .  A
O702       Cd705   2.049       .  S
Zn703       O714   2.015   1_554  S
Zn703       O716   2.022       .  S
Zn703       O708   1.947   1_544  S
O704        C715   1.274   1_545  A
O704       Cd709   2.065   1_455  S
Cd705       O707   2.055       .  S
Cd705       O708   1.995       .  S
Cd706       O710   2.069   1_554  S
Cd706       O719   2.067   1_554  S
Cd706       O708   1.986   1_654  S
O707        C717   1.272       .  A
O708       Cd709   2.000   1_465  S
Cd709       O711   2.049       .  S
O710        C717   1.276   1_655  A
C712        O716   1.274   1_565  A
C712       C1000   1.468       .  S
C713       C1039   1.468       .  S
C715       C2947   1.463       .  S
C717       C2299   1.463       .  S
C718        O719   1.274       .  A
C718       C3091   1.471       .  S
C720        C721   1.540   1_655  S
C720        C726   1.540       .  S
C720        C724   1.539   1_565  S
C720       C1363   1.516       .  S
C721        H728   1.085       .  S
C721        C722   1.369       .  D
C722        C723   1.536   1_565  S
C722        C967   1.488       .  S
C723        C727   1.536   1_545  S
C723        C725   1.540   1_455  S
C723        H729   1.098       .  S
C724        H730   1.085       .  S
C724        C725   1.367       .  D
C725        C946   1.487   1_655  S
C726        H731   1.081       .  S
C726        C727   1.365   1_655  D
C727       C1003   1.485       .  S
C732        C733   1.542   1_556  S
C732        C738   1.537       .  S
C732        C736   1.538   1_655  S
C732       C2530   1.515       .  S
C733        H740   1.082       .  S
C733        C734   1.364       .  D
C734        C735   1.532   1_655  S
C734        C913   1.483       .  S
C735        C739   1.537   1_554  S
C735        C737   1.539   1_554  S
C735        H741   1.098       .  S
C736        H742   1.085       .  S
C736        C737   1.368       .  D
C737        C931   1.487       .  S
C738        H743   1.085       .  S
C738        C739   1.367   1_655  D
C739        C982   1.483       .  S
O744        C760   1.275   1_554  A
O744       Zn750   2.030       .  S
C745        O761   1.276       .  A
C745        O758   1.274       .  A
C745        C892   1.469       .  S
O746        C759   1.272       .  A
O746       Cd753   2.049       .  S
O747        C765   1.274   1_554  A
O747       Cd756   2.077       .  S
O748        C762   1.272       .  A
O748       Cd752   2.057       .  S
O749        C760   1.272       .  A
O749       Cd752   2.055       .  S
Zn750       O761   2.029       .  S
Zn750       O763   2.035       .  S
Zn750       O755   1.949   1_554  S
O751        C762   1.273   1_554  A
O751       Cd756   2.068       .  S
Cd752       O754   2.050       .  S
Cd752       O755   1.989       .  S
Cd753       O757   2.069       .  S
Cd753       O766   2.069       .  S
Cd753       O755   1.995       .  S
O754        C764   1.272       .  A
O755       Cd756   1.997   1_556  S
Cd756       O758   2.059       .  S
O757        C764   1.273       .  A
C759        O763   1.277   1_556  A
C759        C928   1.469       .  S
C760       C1021   1.469       .  S
C762       C2692   1.468       .  S
C764       C2875   1.462       .  S
C765        O766   1.274       .  A
C765       C2281   1.467       .  S
O767        C783   1.274       .  A
O767       Zn773   2.017       .  S
C768        O784   1.274   1_565  A
C768        O781   1.275       .  A
C768       C1054   1.470       .  S
O769        C782   1.273       .  A
O769       Cd776   2.068       .  S
O770        C788   1.274       .  A
O770       Cd779   2.065       .  S
O771        C785   1.274   1_545  A
O771       Cd775   2.073       .  S
O772        C783   1.273       .  A
O772       Cd775   2.059       .  S
Zn773       O784   2.021       .  S
Zn773       O786   2.030       .  S
Zn773       O778   1.952   1_545  S
O774        C785   1.273       .  A
O774       Cd779   2.070       .  S
Cd775       O777   2.076       .  S
Cd775       O778   2.002   1_545  S
Cd776       O780   2.061       .  S
Cd776       O789   2.071       .  S
Cd776       O778   1.996       .  S
O777        C787   1.276   1_545  A
O778       Cd779   1.999       .  S
Cd779       O781   2.069       .  S
O780        C787   1.274       .  A
C782        O786   1.274   1_565  A
C782        C964   1.474       .  S
C783        C874   1.466       .  S
C785       C1165   1.468       .  S
C787       C2389   1.468       .  S
C788        O789   1.274       .  A
C788       C2191   1.466       .  S
O790        C806   1.278       .  A
O790       Zn796   2.050       .  S
C791        O807   1.277       .  A
C791        O804   1.271       .  A
C791        C859   1.474       .  S
O792        C805   1.273       .  A
O792       Cd799   2.059       .  S
O793        C811   1.271   1_455  A
O793       Cd802   2.054       .  S
O794        C808   1.271   1_655  A
O794       Cd798   2.050       .  S
O795        C806   1.273   1_655  A
O795       Cd798   2.063       .  S
Zn796       O807   2.047       .  S
Zn796       O809   2.033       .  S
Zn796       O801   1.953   1_455  S
O797        C808   1.274       .  A
O797       Cd802   2.065       .  S
Cd798       O800   2.075       .  S
Cd798       O801   1.998       .  S
Cd799       O803   2.070       .  S
Cd799       O812   2.091       .  S
Cd799       O801   2.004       .  S
O800        C810   1.275       .  A
O801       Cd802   1.992   1_655  S
Cd802       O804   2.053       .  S
O803        C810   1.274       .  A
C805        O809   1.277   1_655  A
C805        C949   1.471       .  S
C806        C910   1.475       .  S
C808       C1129   1.463       .  S
C810       C1543   1.467       .  S
C811        O812   1.276       .  A
C811       C1075   1.469       .  S
C813        C814   1.536       .  S
C813        C819   1.543       .  S
C813        C817   1.540       .  S
C813       C1234   1.517       .  S
C814        H821   1.085       .  S
C814        C815   1.366       .  D
C815        C816   1.538       .  S
C815        C895   1.483       .  S
C816        C820   1.532       .  S
C816        C818   1.538       .  S
C816        H822   1.097       .  S
C817        H823   1.085       .  S
C817        C818   1.371       .  D
C818        C856   1.488       .  S
C819        H824   1.079       .  S
C819        C820   1.363       .  D
C820        C877   1.483       .  S
C825        C826   1.525       .  S
C825        C831   1.539       .  S
C825        C829   1.526       .  S
C825       C3142   1.521       .  S
C826        H833   1.087       .  S
C826        C827   1.364       .  D
C827        C828   1.550       .  S
C827       C1147   1.481       .  S
C828        C832   1.550       .  S
C828        C830   1.555       .  S
C828        H834   1.110       .  S
C829        H835   1.083       .  S
C829        C830   1.370       .  D
C830       C2713   1.496       .  S
C831        H836   1.083       .  S
C831        C832   1.368       .  D
C832       C1561   1.489       .  S
C837        C838   1.530       .  S
C837        C843   1.533       .  S
C837        C841   1.537       .  S
C837       C3073   1.527       .  S
C838        H845   1.085       .  S
C838        C839   1.371       .  D
C839        C840   1.554       .  S
C839       C2083   1.498       .  S
C840        C844   1.552       .  S
C840        C842   1.545       .  S
C840        H846   1.110       .  S
C841        H847   1.081       .  S
C841        C842   1.364       .  D
C842       C2767   1.487       .  S
C843        H848   1.086       .  S
C843        C844   1.370       .  D
C844       C1705   1.489       .  S
C849        C854   1.382       .  A
C849        C850   1.405       .  A
C849        N855   1.346       .  A
C850        C851   1.406       .  A
C850        H861   1.082       .  S
C851        C860   1.379       .  A
C851        C852   1.385       .  A
C852        C853   1.402       .  A
C852        N858   1.344       .  A
C853        C854   1.402       .  A
C853        H862   1.082       .  S
C854        C857   1.374       .  A
N855        C856   1.358       .  A
N855        H865   1.044       .  S
C856        C857   1.399       .  A
C857        H863   1.081       .  S
N858        C859   1.355       .  A
N858        H866   1.045       .  S
C859        C860   1.398       .  A
C860        H864   1.082       .  S
C867        C872   1.385       .  A
C867        C868   1.402       .  A
C867        N873   1.341       .  A
C868        C869   1.401       .  A
C868        H879   1.082       .  S
C869        C878   1.375       .  A
C869        C870   1.382       .  A
C870        C871   1.401       .  A
C870        N876   1.340       .  A
C871        C872   1.400       .  A
C871        H880   1.082       .  S
C872        C875   1.376       .  A
N873        C874   1.355       .  A
N873        H883   1.045       .  S
C874        C875   1.394       .  A
C875        H881   1.082       .  S
N876        C877   1.357       .  A
N876        H884   1.043       .  S
C877        C878   1.399       .  A
C878        H882   1.081       .  S
C885        C890   1.385       .  A
C885        C886   1.400       .  A
C885        N891   1.343       .  A
C886        C887   1.400       .  A
C886        H897   1.082       .  S
C887        C896   1.371       .  A
C887        C888   1.383       .  A
C888        C889   1.404       .  A
C888        N894   1.345       .  A
C889        C890   1.404       .  A
C889        H898   1.082       .  S
C890        C893   1.376       .  A
N891        C892   1.354       .  A
N891        H901   1.045       .  S
C892        C893   1.396       .  A
C893        H899   1.082       .  S
N894        C895   1.358       .  A
N894        H902   1.044       .  S
C895        C896   1.397       .  A
C896        H900   1.081       .  S
C903        C908   1.384   1_655  A
C903        C904   1.404       .  A
C903        N909   1.343       .  A
C904        C905   1.402       .  A
C904        H915   1.082       .  S
C905        C914   1.377       .  A
C905        C906   1.383   1_655  A
C906        C907   1.404       .  A
C906        N912   1.343       .  A
C907        C908   1.403       .  A
C907        H916   1.082       .  S
C908        C911   1.380       .  A
N909        C910   1.357   1_655  A
N909        H919   1.045       .  S
C910        C911   1.396       .  A
C911        H917   1.082       .  S
N912        C913   1.358   1_455  A
N912        H920   1.044       .  S
C913        C914   1.397       .  A
C914        H918   1.082       .  S
C921        C926   1.385   1_554  A
C921        C922   1.399       .  A
C921        N927   1.343       .  A
C922        C923   1.400       .  A
C922        H933   1.082       .  S
C923        C932   1.371       .  A
C923        C924   1.382   1_554  A
C924        C925   1.405       .  A
C924        N930   1.346       .  A
C925        C926   1.405       .  A
C925        H934   1.082       .  S
C926        C929   1.377       .  A
N927        C928   1.353   1_554  A
N927        H937   1.045       .  S
C928        C929   1.397       .  A
C929        H935   1.082       .  S
N930        C931   1.359       .  A
N930        H938   1.044       .  S
C931        C932   1.397   1_556  A
C932        H936   1.080       .  S
C939        C944   1.382   1_655  A
C939        C940   1.408       .  A
C939        N945   1.348       .  A
C940        C941   1.408       .  A
C940        H951   1.082       .  S
C941        C950   1.381       .  A
C941        C942   1.385   1_655  A
C942        C943   1.397       .  A
C942        N948   1.341       .  A
C943        C944   1.398       .  A
C943        H952   1.082       .  S
C944        C947   1.369       .  A
N945        C946   1.361   1_655  A
N945        H955   1.044       .  S
C946        C947   1.395       .  A
C947        H953   1.080       .  S
N948        C949   1.353   1_455  A
N948        H956   1.045       .  S
C949        C950   1.399       .  A
C950        H954   1.082       .  S
C957        C962   1.384       .  A
C957        C958   1.403   1_565  A
C957        N963   1.344   1_565  A
C958        C959   1.403   1_545  A
C958        H969   1.082       .  S
C959        C968   1.376   1_565  A
C959        C960   1.383       .  A
C960        C961   1.404       .  A
C960        N966   1.345       .  A
C961        C962   1.404       .  A
C961        H970   1.082       .  S
C962        C965   1.379       .  A
N963        C964   1.356   1_545  A
N963        H973   1.045       .  S
C964        C965   1.397       .  A
C965        H971   1.082       .  S
N966        C967   1.358       .  A
N966        H974   1.044       .  S
C967        C968   1.400   1_565  A
C968        H972   1.081       .  S
C975        C980   1.383   1_455  A
C975        C976   1.400   1_556  A
C975        N981   1.338   1_556  A
C976        C977   1.398   1_554  A
C976        H987   1.082       .  S
C977        C986   1.374       .  A
C977        C978   1.385       .  A
C978        C979   1.403   1_455  A
C978        N984   1.341   1_455  A
C979        C980   1.402       .  A
C979        H988   1.082       .  S
C980        C983   1.378       .  A
N981        C982   1.357   1_554  A
N981        H991   1.043       .  S
C982        C983   1.399   1_455  A
C983        H989   1.082       .  S
N984        C985   1.356   1_655  A
N984        H992   1.045       .  S
C985        C986   1.392       .  A
C986        H990   1.082   1_556  S
C993        C998   1.385   1_445  A
C993        C994   1.401       .  A
C993        N999   1.342       .  A
C994        C995   1.401       .  A
C994       H1005   1.082       .  S
C995       C1004   1.374       .  A
C995        C996   1.383   1_445  A
C996        C997   1.402       .  A
C996       N1002   1.342       .  A
C997        C998   1.402       .  A
C997       H1006   1.082       .  S
C998       C1001   1.376       .  A
N999       C1000   1.355   1_545  A
N999       H1009   1.045       .  S
C1000      C1001   1.395   1_455  A
C1001      H1007   1.082       .  S
N1002      C1003   1.358   1_655  A
N1002      H1010   1.044       .  S
C1003      C1004   1.398   1_565  A
C1004      H1008   1.081       .  S
C1011      C1016   1.383   1_556  A
C1011      C1012   1.403       .  A
C1011      N1017   1.344       .  A
C1012      C1013   1.403       .  A
C1012      H1023   1.082       .  S
C1013      C1022   1.376       .  A
C1013      C1014   1.385   1_556  A
C1014      C1015   1.400       .  A
C1014      N1020   1.342       .  A
C1015      C1016   1.400       .  A
C1015      H1024   1.083       .  S
C1016      C1019   1.371       .  A
N1017      C1018   1.357       .  A
N1017      H1027   1.044       .  S
C1018      C1019   1.398   1_556  A
C1019      H1025   1.080       .  S
N1020      C1021   1.354   1_554  A
N1020      H1028   1.045       .  S
C1021      C1022   1.396       .  A
C1022      H1026   1.082       .  S
C1029      C1034   1.383   1_566  A
C1029      C1030   1.402       .  A
C1029      N1035   1.344       .  A
C1030      C1031   1.403       .  A
C1030      H1041   1.082       .  S
C1031      C1040   1.374       .  A
C1031      C1032   1.385   1_566  A
C1032      C1033   1.401       .  A
C1032      N1038   1.344       .  A
C1033      C1034   1.402       .  A
C1033      H1042   1.082       .  S
C1034      C1037   1.372       .  A
N1035      C1036   1.357   1_565  A
N1035      H1045   1.044       .  S
C1036      C1037   1.399   1_556  A
C1037      H1043   1.081       .  S
N1038      C1039   1.355   1_544  A
N1038      H1046   1.045       .  S
C1039      C1040   1.395       .  A
C1040      H1044   1.082       .  S
C1047      C1052   1.384   1_545  A
C1047      C1048   1.403       .  A
C1047      N1053   1.344       .  A
C1048      C1049   1.403       .  A
C1048      H1059   1.082       .  S
C1049      C1058   1.374       .  A
C1049      C1050   1.383   1_545  A
C1050      C1051   1.401       .  A
C1050      N1056   1.343       .  A
C1051      C1052   1.401       .  A
C1051      H1060   1.082       .  S
C1052      C1055   1.375       .  A
N1053      C1054   1.357   1_545  A
N1053      H1063   1.045       .  S
C1054      C1055   1.394       .  A
C1055      H1061   1.082       .  S
N1056      C1057   1.356   1_565  A
N1056      H1064   1.044       .  S
C1057      C1058   1.400       .  A
C1058      H1062   1.081       .  S
C1065      C1070   1.385   1_455  A
C1065      C1066   1.405       .  A
C1065      N1071   1.346       .  A
C1066      C1067   1.405       .  A
C1066      H1077   1.082       .  S
C1067      C1076   1.377       .  A
C1067      C1068   1.385   1_455  A
C1068      C1069   1.402       .  A
C1068      N1074   1.345       .  A
C1069      C1070   1.403       .  A
C1069      H1078   1.082       .  S
C1070      C1073   1.376       .  A
N1071      C1072   1.356       .  A
N1071      H1081   1.045       .  S
C1072      C1073   1.393   1_455  A
C1073      H1079   1.083       .  S
N1074      C1075   1.354       .  A
N1074      H1082   1.045       .  S
C1075      C1076   1.396   1_655  A
C1076      H1080   1.083       .  S
C1083      C1088   1.384   1_655  A
C1083      C1084   1.404       .  A
C1083      N1089   1.345       .  A
C1084      C1085   1.404       .  A
C1084      H1095   1.082       .  S
C1085      C1094   1.378       .  A
C1085      C1086   1.385   1_655  A
C1086      C1087   1.403       .  A
C1086      N1092   1.344       .  A
C1087      C1088   1.403       .  A
C1087      H1096   1.082       .  S
C1088      C1091   1.378       .  A
N1089      C1090   1.356   1_655  A
N1089      H1099   1.045       .  S
C1090      C1091   1.395       .  A
C1091      H1097   1.082       .  S
N1092      C1093   1.354       .  A
N1092      H1100   1.045       .  S
C1093      C1094   1.394   1_455  A
C1094      H1098   1.082       .  S
C1101      C1106   1.384   1_455  A
C1101      C1102   1.406       .  A
C1101      N1107   1.346       .  A
C1102      C1103   1.405       .  A
C1102      H1113   1.082       .  S
C1103      C1112   1.381       .  A
C1103      C1104   1.385       .  A
C1104      C1105   1.401   1_455  A
C1104      N1110   1.341   1_455  A
C1105      C1106   1.400       .  A
C1105      H1114   1.082       .  S
C1106      C1109   1.375       .  A
N1107      C1108   1.357       .  A
N1107      H1117   1.045       .  S
C1108      C1109   1.394   1_455  A
C1109      H1115   1.083       .  S
N1110      C1111   1.352   1_655  A
N1110      H1118   1.045       .  S
C1111      C1112   1.395       .  A
C1112      H1116   1.082       .  S
C1119      C1124   1.386       .  A
C1119      C1120   1.400       .  A
C1119      N1125   1.339       .  A
C1120      C1121   1.398       .  A
C1120      H1131   1.082       .  S
C1121      C1130   1.375       .  A
C1121      C1122   1.385       .  A
C1122      C1123   1.403   1_455  A
C1122      N1128   1.340   1_455  A
C1123      C1124   1.401   1_655  A
C1123      H1132   1.082       .  S
C1124      C1127   1.378       .  A
N1125      C1126   1.351       .  A
N1125      H1135   1.045       .  S
C1126      C1127   1.393       .  A
C1127      H1133   1.082   1_455  S
N1128      C1129   1.355   1_655  A
N1128      H1136   1.045       .  S
C1129      C1130   1.393       .  A
C1130      H1134   1.082       .  S
C1137      C1142   1.382       .  A
C1137      C1138   1.409       .  A
C1137      N1143   1.346       .  A
C1138      C1139   1.407       .  A
C1138      H1149   1.082       .  S
C1139      C1148   1.388       .  A
C1139      C1140   1.384       .  A
C1140      C1141   1.403       .  A
C1140      N1146   1.340       .  A
C1141      C1142   1.400       .  A
C1141      H1150   1.082       .  S
C1142      C1145   1.377       .  A
N1143      C1144   1.361       .  A
N1143      H1153   1.043       .  S
C1144      C1145   1.396       .  A
C1145      H1151   1.082       .  S
N1146      C1147   1.356       .  A
N1146      H1154   1.045       .  S
C1147      C1148   1.398       .  A
C1148      H1152   1.082       .  S
C1155      C1160   1.385   1_545  A
C1155      C1156   1.403       .  A
C1155      N1161   1.344       .  A
C1156      C1157   1.403       .  A
C1156      H1167   1.082       .  S
C1157      C1166   1.378       .  A
C1157      C1158   1.385   1_545  A
C1158      C1159   1.401       .  A
C1158      N1164   1.343       .  A
C1159      C1160   1.400       .  A
C1159      H1168   1.082       .  S
C1160      C1163   1.374       .  A
N1161      C1162   1.354   1_545  A
N1161      H1171   1.045       .  S
C1162      C1163   1.391       .  A
C1163      H1169   1.083       .  S
N1164      C1165   1.355       .  A
N1164      H1172   1.045       .  S
C1165      C1166   1.395   1_565  A
C1166      H1170   1.082       .  S
C1173      C1178   1.384   1_545  A
C1173      C1174   1.403       .  A
C1173      N1179   1.342       .  A
C1174      C1175   1.401       .  A
C1174      H1185   1.082       .  S
C1175      C1184   1.378       .  A
C1175      C1176   1.382   1_545  A
C1176      C1177   1.408       .  A
C1176      N1182   1.344       .  A
C1177      C1178   1.406       .  A
C1177      H1186   1.082       .  S
C1178      C1181   1.385       .  A
N1179      C1180   1.356   1_545  A
N1179      H1189   1.045       .  S
C1180      C1181   1.399       .  A
C1181      H1187   1.082       .  S
N1182      C1183   1.361       .  A
N1182      H1190   1.043       .  S
C1183      C1184   1.397   1_565  A
C1184      H1188   1.082       .  S
C1191      C1196   1.384       .  A
C1191      C1192   1.405       .  A
C1191      N1197   1.344       .  A
C1192      C1193   1.404       .  A
C1192      H1203   1.082       .  S
C1193      C1202   1.381       .  A
C1193      C1194   1.384       .  A
C1194      C1195   1.404       .  A
C1194      N1200   1.343       .  A
C1195      C1196   1.403       .  A
C1195      H1204   1.082       .  S
C1196      C1199   1.380       .  A
N1197      C1198   1.357       .  A
N1197      H1207   1.045       .  S
C1198      C1199   1.395       .  A
C1199      H1205   1.082       .  S
N1200      C1201   1.354       .  A
N1200      H1208   1.042       .  S
C1201      C1202   1.394       .  A
C1202      H1206   1.082       .  S
C1209      C1214   1.383       .  A
C1209      C1210   1.403       .  A
C1209      N1215   1.341       .  A
C1210      C1211   1.401       .  A
C1210      H1221   1.082       .  S
C1211      C1220   1.377       .  A
C1211      C1212   1.382       .  A
C1212      C1213   1.413       .  A
C1212      N1218   1.351       .  A
C1213      C1214   1.412       .  A
C1213      H1222   1.082       .  S
C1214      C1217   1.392       .  A
N1215      C1216   1.358       .  A
N1215      H1225   1.044       .  S
C1216      C1217   1.400       .  A
C1217      H1223   1.082       .  S
N1218      C1219   1.363       .  A
N1218      H1226   1.043       .  S
C1219      C1220   1.397       .  A
C1220      H1224   1.082       .  S
C1227      C1232   1.381       .  A
C1227      C1228   1.409       .  A
C1227      N1233   1.347       .  A
C1228      C1229   1.409       .  A
C1228      H1239   1.082       .  S
C1229      C1238   1.382       .  A
C1229      C1230   1.383       .  A
C1230      C1231   1.397       .  A
C1230      N1236   1.339       .  A
C1231      C1232   1.396       .  A
C1231      H1240   1.083       .  S
C1232      C1235   1.368       .  A
N1233      C1234   1.360       .  A
N1233      H1243   1.044       .  S
C1234      C1235   1.398       .  A
C1235      H1241   1.079       .  S
N1236      C1237   1.356       .  A
N1236      H1244   1.042       .  S
C1237      C1238   1.402       .  A
C1238      H1242   1.082       .  S
C1245      C1250   1.382       .  A
C1245      C1246   1.403       .  A
C1245      N1251   1.346       .  A
C1246      C1247   1.405       .  A
C1246      H1257   1.082       .  S
C1247      C1256   1.376       .  A
C1247      C1248   1.384       .  A
C1248      C1249   1.409       .  A
C1248      N1254   1.352       .  A
C1249      C1250   1.410       .  A
C1249      H1258   1.082       .  S
C1250      C1253   1.382       .  A
N1251      C1252   1.357       .  A
N1251      H1261   1.045       .  S
C1252      C1253   1.405       .  A
C1253      H1259   1.081       .  S
N1254      C1255   1.358       .  A
N1254      H1262   1.044       .  S
C1255      C1256   1.398       .  A
C1256      H1260   1.082       .  S
C1263      C1268   1.384       .  A
C1263      C1264   1.403       .  A
C1263      N1269   1.346       .  A
C1264      C1265   1.404       .  A
C1264      H1275   1.082       .  S
C1265      C1274   1.375       .  A
C1265      C1266   1.382       .  A
C1266      C1267   1.408       .  A
C1266      N1272   1.349       .  A
C1267      C1268   1.409       .  A
C1267      H1276   1.082       .  S
C1268      C1271   1.382       .  A
N1269      C1270   1.356       .  A
N1269      H1279   1.045       .  S
C1270      C1271   1.400       .  A
C1271      H1277   1.082       .  S
N1272      C1273   1.359       .  A
N1272      H1280   1.044       .  S
C1273      C1274   1.401       .  A
C1274      H1278   1.080       .  S
C1281      C1286   1.384       .  A
C1281      C1282   1.406       .  A
C1281      N1287   1.345       .  A
C1282      C1283   1.405       .  A
C1282      H1293   1.082       .  S
C1283      C1292   1.381       .  A
C1283      C1284   1.382       .  A
C1284      C1285   1.407       .  A
C1284      N1290   1.346       .  A
C1285      C1286   1.406       .  A
C1285      H1294   1.082       .  S
C1286      C1289   1.384       .  A
N1287      C1288   1.358       .  A
N1287      H1297   1.045       .  S
C1288      C1289   1.398       .  A
C1289      H1295   1.082       .  S
N1290      C1291   1.360       .  A
N1290      H1298   1.043       .  S
C1291      C1292   1.401       .  A
C1292      H1296   1.081       .  S
C1299      C1304   1.381       .  A
C1299      C1300   1.403       .  A
C1299      N1305   1.339       .  A
C1300      C1301   1.400       .  A
C1300      H1311   1.083       .  S
C1301      C1310   1.380       .  A
C1301      C1302   1.381       .  A
C1302      C1303   1.416       .  A
C1302      N1308   1.350       .  A
C1303      C1304   1.413       .  A
C1303      H1312   1.082       .  S
C1304      C1307   1.396       .  A
N1305      C1306   1.360       .  A
N1305      H1315   1.043       .  S
C1306      C1307   1.404       .  A
C1307      H1313   1.082       .  S
N1308      C1309   1.363       .  A
N1308      H1316   1.044       .  S
C1309      C1310   1.399       .  A
C1310      H1314   1.081       .  S
C1317      C1322   1.384   1_655  A
C1317      C1318   1.406       .  A
C1317      N1323   1.343       .  A
C1318      C1319   1.404       .  A
C1318      H1329   1.082       .  S
C1319      C1328   1.382       .  A
C1319      C1320   1.382   1_655  A
C1320      C1321   1.406       .  A
C1320      N1326   1.342       .  A
C1321      C1322   1.403       .  A
C1321      H1330   1.082       .  S
C1322      C1325   1.382       .  A
N1323      C1324   1.357       .  A
N1323      H1333   1.045       .  S
C1324      C1325   1.396   1_655  A
C1325      H1331   1.082       .  S
N1326      C1327   1.360   1_455  A
N1326      H1334   1.043       .  S
C1327      C1328   1.398       .  A
C1328      H1332   1.082       .  S
C1335      C1340   1.385   1_565  A
C1335      C1336   1.404       .  A
C1335      N1341   1.342       .  A
C1336      C1337   1.402       .  A
C1336      H1347   1.082       .  S
C1337      C1346   1.380       .  A
C1337      C1338   1.385   1_565  A
C1338      C1339   1.404       .  A
C1338      N1344   1.341       .  A
C1339      C1340   1.402       .  A
C1339      H1348   1.082       .  S
C1340      C1343   1.380       .  A
N1341      C1342   1.355       .  A
N1341      H1351   1.045       .  S
C1342      C1343   1.394   1_565  A
C1343      H1349   1.082       .  S
N1344      C1345   1.354   1_545  A
N1344      H1352   1.045       .  S
C1345      C1346   1.393       .  A
C1346      H1350   1.082       .  S
C1353      C1358   1.383       .  A
C1353      C1354   1.404       .  A
C1353      N1359   1.344       .  A
C1354      C1355   1.404       .  A
C1354      H1365   1.082       .  S
C1355      C1364   1.377       .  A
C1355      C1356   1.382       .  A
C1356      C1357   1.404       .  A
C1356      N1362   1.344       .  A
C1357      C1358   1.403       .  A
C1357      H1366   1.082       .  S
C1358      C1361   1.377       .  A
N1359      C1360   1.360       .  A
N1359      H1369   1.043       .  S
C1360      C1361   1.397       .  A
C1361      H1367   1.082       .  S
N1362      C1363   1.357       .  A
N1362      H1370   1.045       .  S
C1363      C1364   1.402       .  A
C1364      H1368   1.080       .  S
C1371      C1376   1.381       .  A
C1371      C1372   1.403       .  A
C1371      N1377   1.340       .  A
C1372      C1373   1.400       .  A
C1372      H1383   1.083       .  S
C1373      C1382   1.378       .  A
C1373      C1374   1.381       .  A
C1374      C1375   1.416       .  A
C1374      N1380   1.351       .  A
C1375      C1376   1.414       .  A
C1375      H1384   1.082       .  S
C1376      C1379   1.395       .  A
N1377      C1378   1.360       .  A
N1377      H1387   1.043       .  S
C1378      C1379   1.405       .  A
C1379      H1385   1.082       .  S
N1380      C1381   1.363       .  A
N1380      H1388   1.044       .  S
C1381      C1382   1.400       .  A
C1382      H1386   1.080       .  S
C1389      C1394   1.384       .  A
C1389      C1390   1.410       .  A
C1389      N1395   1.351       .  A
C1390      C1391   1.410       .  A
C1390      H1401   1.082       .  S
C1391      C1400   1.384       .  A
C1391      C1392   1.382       .  A
C1392      C1393   1.405       .  A
C1392      N1398   1.347       .  A
C1393      C1394   1.406       .  A
C1393      H1402   1.082       .  S
C1394      C1397   1.379       .  A
N1395      C1396   1.358       .  A
N1395      H1405   1.045       .  S
C1396      C1397   1.397       .  A
C1397      H1403   1.082       .  S
N1398      C1399   1.358       .  A
N1398      H1406   1.045       .  S
C1399      C1400   1.405       .  A
C1400      H1404   1.081       .  S
C1407      C1412   1.384       .  A
C1407      C1408   1.401       .  A
C1407      N1413   1.340       .  A
C1408      C1409   1.399       .  A
C1408      H1419   1.082       .  S
C1409      C1418   1.374       .  A
C1409      C1410   1.383       .  A
C1410      C1411   1.407       .  A
C1410      N1416   1.345       .  A
C1411      C1412   1.406       .  A
C1411      H1420   1.082       .  S
C1412      C1415   1.385       .  A
N1413      C1414   1.355       .  A
N1413      H1423   1.045       .  S
C1414      C1415   1.396       .  A
C1415      H1421   1.082       .  S
N1416      C1417   1.360       .  A
N1416      H1424   1.043       .  S
C1417      C1418   1.396       .  A
C1418      H1422   1.082       .  S
C1425      C1430   1.384       .  A
C1425      C1426   1.403       .  A
C1425      N1431   1.341       .  A
C1426      C1427   1.401       .  A
C1426      H1437   1.082       .  S
C1427      C1436   1.377       .  A
C1427      C1428   1.382       .  A
C1428      C1429   1.408       .  A
C1428      N1434   1.345       .  A
C1429      C1430   1.406       .  A
C1429      H1438   1.082       .  S
C1430      C1433   1.385       .  A
N1431      C1432   1.356       .  A
N1431      H1441   1.045       .  S
C1432      C1433   1.398       .  A
C1433      H1439   1.082       .  S
N1434      C1435   1.360       .  A
N1434      H1442   1.043       .  S
C1435      C1436   1.398       .  A
C1436      H1440   1.082       .  S
C1443      C1448   1.385       .  A
C1443      C1444   1.402       .  A
C1443      N1449   1.347       .  A
C1444      C1445   1.404       .  A
C1444      H1455   1.082       .  S
C1445      C1454   1.371       .  A
C1445      C1446   1.382       .  A
C1446      C1447   1.405       .  A
C1446      N1452   1.350       .  A
C1447      C1448   1.407       .  A
C1447      H1456   1.082       .  S
C1448      C1451   1.377       .  A
N1449      C1450   1.356       .  A
N1449      H1459   1.045       .  S
C1450      C1451   1.398       .  A
C1451      H1457   1.082       .  S
N1452      C1453   1.359       .  A
N1452      H1460   1.044       .  S
C1453      C1454   1.401       .  A
C1454      H1458   1.080       .  S
C1461      C1466   1.385       .  A
C1461      C1462   1.402       .  A
C1461      N1467   1.342       .  A
C1462      C1463   1.401       .  A
C1462      H1473   1.082       .  S
C1463      C1472   1.376       .  A
C1463      C1464   1.385       .  A
C1464      C1465   1.404       .  A
C1464      N1470   1.343       .  A
C1465      C1466   1.403       .  A
C1465      H1474   1.082       .  S
C1466      C1469   1.378       .  A
N1467      C1468   1.355       .  A
N1467      H1477   1.045       .  S
C1468      C1469   1.396       .  A
C1469      H1475   1.082       .  S
N1470      C1471   1.355       .  A
N1470      H1478   1.045       .  S
C1471      C1472   1.391       .  A
C1472      H1476   1.082       .  S
C1479      C1484   1.382       .  A
C1479      C1480   1.404       .  A
C1479      N1485   1.341       .  A
C1480      C1481   1.401       .  A
C1480      H1491   1.082       .  S
C1481      C1490   1.379       .  A
C1481      C1482   1.384       .  A
C1482      C1483   1.406       .  A
C1482      N1488   1.343       .  A
C1483      C1484   1.404       .  A
C1483      H1492   1.082       .  S
C1484      C1487   1.380       .  A
N1485      C1486   1.359       .  A
N1485      H1495   1.043       .  S
C1486      C1487   1.399       .  A
C1487      H1493   1.082       .  S
N1488      C1489   1.358       .  A
N1488      H1496   1.045       .  S
C1489      C1490   1.394       .  A
C1490      H1494   1.082       .  S
C1497      C1502   1.385   1_565  A
C1497      C1498   1.402       .  A
C1497      N1503   1.342       .  A
C1498      C1499   1.400       .  A
C1498      H1509   1.082       .  S
C1499      C1508   1.377       .  A
C1499      C1500   1.385   1_565  A
C1500      C1501   1.404       .  A
C1500      N1506   1.343       .  A
C1501      C1502   1.403       .  A
C1501      H1510   1.082       .  S
C1502      C1505   1.378       .  A
N1503      C1504   1.354       .  A
N1503      H1513   1.045       .  S
C1504      C1505   1.395   1_565  A
C1505      H1511   1.082       .  S
N1506      C1507   1.355   1_545  A
N1506      H1514   1.045       .  S
C1507      C1508   1.391       .  A
C1508      H1512   1.082       .  S
C1515      C1520   1.384       .  A
C1515      C1516   1.406       .  A
C1515      N1521   1.345       .  A
C1516      C1517   1.405       .  A
C1516      H1527   1.082       .  S
C1517      C1526   1.383       .  A
C1517      C1518   1.385       .  A
C1518      C1519   1.405       .  A
C1518      N1524   1.343       .  A
C1519      C1520   1.403       .  A
C1519      H1528   1.082       .  S
C1520      C1523   1.380       .  A
N1521      C1522   1.357       .  A
N1521      H1531   1.045       .  S
C1522      C1523   1.396       .  A
C1523      H1529   1.082       .  S
N1524      C1525   1.355       .  A
N1524      H1532   1.045       .  S
C1525      C1526   1.395       .  A
C1526      H1530   1.082       .  S
C1533      C1538   1.385       .  A
C1533      C1534   1.403       .  A
C1533      N1539   1.340       .  A
C1534      C1535   1.400       .  A
C1534      H1545   1.082       .  S
C1535      C1544   1.379       .  A
C1535      C1536   1.384       .  A
C1536      C1537   1.405       .  A
C1536      N1542   1.343       .  A
C1537      C1538   1.403       .  A
C1537      H1546   1.082       .  S
C1538      C1541   1.383       .  A
N1539      C1540   1.355       .  A
N1539      H1549   1.045       .  S
C1540      C1541   1.394       .  A
C1541      H1547   1.082       .  S
N1542      C1543   1.355       .  A
N1542      H1550   1.045       .  S
C1543      C1544   1.394       .  A
C1544      H1548   1.082       .  S
C1551      C1556   1.382       .  A
C1551      C1552   1.413       .  A
C1551      N1557   1.350       .  A
C1552      C1553   1.412       .  A
C1552      H1563   1.082       .  S
C1553      C1562   1.391       .  A
C1553      C1554   1.384       .  A
C1554      C1555   1.403       .  A
C1554      N1560   1.343       .  A
C1555      C1556   1.401       .  A
C1555      H1564   1.082       .  S
C1556      C1559   1.377       .  A
N1557      C1558   1.363       .  A
N1557      H1567   1.043       .  S
C1558      C1559   1.396       .  A
C1559      H1565   1.082       .  S
N1560      C1561   1.356       .  A
N1560      H1568   1.045       .  S
C1561      C1562   1.400       .  A
C1562      H1566   1.082       .  S
C1569      C1574   1.385       .  A
C1569      C1570   1.403       .  A
C1569      N1575   1.341       .  A
C1570      C1571   1.401       .  A
C1570      H1581   1.082       .  S
C1571      C1580   1.378       .  A
C1571      C1572   1.385       .  A
C1572      C1573   1.402       .  A
C1572      N1578   1.341       .  A
C1573      C1574   1.401       .  A
C1573      H1582   1.082       .  S
C1574      C1577   1.379       .  A
N1575      C1576   1.354       .  A
N1575      H1585   1.045       .  S
C1576      C1577   1.393       .  A
C1577      H1583   1.082       .  S
N1578      C1579   1.354       .  A
N1578      H1586   1.045       .  S
C1579      C1580   1.394       .  A
C1580      H1584   1.082       .  S
C1587      C1592   1.385       .  A
C1587      C1588   1.401       .  A
C1587      N1593   1.341       .  A
C1588      C1589   1.400       .  A
C1588      H1599   1.082       .  S
C1589      C1598   1.375       .  A
C1589      C1590   1.386       .  A
C1590      C1591   1.403       .  A
C1590      N1596   1.343       .  A
C1591      C1592   1.402       .  A
C1591      H1600   1.082       .  S
C1592      C1595   1.377       .  A
N1593      C1594   1.354       .  A
N1593      H1603   1.045       .  S
C1594      C1595   1.394       .  A
C1595      H1601   1.082       .  S
N1596      C1597   1.353       .  A
N1596      H1604   1.045       .  S
C1597      C1598   1.391       .  A
C1598      H1602   1.083       .  S
C1605      C1610   1.385       .  A
C1605      C1606   1.402       .  A
C1605      N1611   1.341       .  A
C1606      C1607   1.400       .  A
C1606      H1617   1.082       .  S
C1607      C1616   1.377       .  A
C1607      C1608   1.385       .  A
C1608      C1609   1.401       .  A
C1608      N1614   1.339       .  A
C1609      C1610   1.400       .  A
C1609      H1618   1.082       .  S
C1610      C1613   1.377       .  A
N1611      C1612   1.354       .  A
N1611      H1621   1.045       .  S
C1612      C1613   1.393       .  A
C1613      H1619   1.082       .  S
N1614      C1615   1.353       .  A
N1614      H1622   1.045       .  S
C1615      C1616   1.391       .  A
C1616      H1620   1.082       .  S
C1623      C1628   1.384       .  A
C1623      C1624   1.404       .  A
C1623      N1629   1.342       .  A
C1624      C1625   1.402       .  A
C1624      H1635   1.082       .  S
C1625      C1634   1.379       .  A
C1625      C1626   1.382       .  A
C1626      C1627   1.402       .  A
C1626      N1632   1.339       .  A
C1627      C1628   1.399       .  A
C1627      H1636   1.082       .  S
C1628      C1631   1.377       .  A
N1629      C1630   1.357       .  A
N1629      H1639   1.045       .  S
C1630      C1631   1.393       .  A
C1631      H1637   1.082       .  S
N1632      C1633   1.358       .  A
N1632      H1640   1.043       .  S
C1633      C1634   1.398       .  A
C1634      H1638   1.082       .  S
C1641      C1646   1.384       .  A
C1641      C1642   1.404       .  A
C1641      N1647   1.347       .  A
C1642      C1643   1.405       .  A
C1642      H1653   1.082       .  S
C1643      C1652   1.376       .  A
C1643      C1644   1.382       .  A
C1644      C1645   1.404       .  A
C1644      N1650   1.345       .  A
C1645      C1646   1.404       .  A
C1645      H1654   1.082       .  S
C1646      C1649   1.376       .  A
N1647      C1648   1.356       .  A
N1647      H1657   1.045       .  S
C1648      C1649   1.397       .  A
C1649      H1655   1.082       .  S
N1650      C1651   1.358       .  A
N1650      H1658   1.044       .  S
C1651      C1652   1.400       .  A
C1652      H1656   1.081       .  S
C1659      C1664   1.385       .  A
C1659      C1660   1.407       .  A
C1659      N1665   1.347       .  A
C1660      C1661   1.407       .  A
C1660      H1671   1.082       .  S
C1661      C1670   1.382       .  A
C1661      C1662   1.384       .  A
C1662      C1663   1.403       .  A
C1662      N1668   1.344       .  A
C1663      C1664   1.403       .  A
C1663      H1672   1.082       .  S
C1664      C1667   1.377       .  A
N1665      C1666   1.356       .  A
N1665      H1675   1.045       .  S
C1666      C1667   1.393       .  A
C1667      H1673   1.083       .  S
N1668      C1669   1.356       .  A
N1668      H1676   1.045       .  S
C1669      C1670   1.397       .  A
C1670      H1674   1.082       .  S
C1677      C1682   1.382       .  A
C1677      C1678   1.407       .  A
C1677      N1683   1.343       .  A
C1678      C1679   1.405       .  A
C1678      H1689   1.082       .  S
C1679      C1688   1.385       .  A
C1679      C1680   1.384       .  A
C1680      C1681   1.405       .  A
C1680      N1686   1.342       .  A
C1681      C1682   1.402       .  A
C1681      H1690   1.082       .  S
C1682      C1685   1.380       .  A
N1683      C1684   1.359       .  A
N1683      H1693   1.043       .  S
C1684      C1685   1.398       .  A
C1685      H1691   1.082       .  S
N1686      C1687   1.357       .  A
N1686      H1694   1.045       .  S
C1687      C1688   1.397       .  A
C1688      H1692   1.082       .  S
C1695      C1700   1.382       .  A
C1695      C1696   1.413       .  A
C1695      N1701   1.351       .  A
C1696      C1697   1.412       .  A
C1696      H1707   1.082       .  S
C1697      C1706   1.389       .  A
C1697      C1698   1.384       .  A
C1698      C1699   1.403       .  A
C1698      N1704   1.344       .  A
C1699      C1700   1.402       .  A
C1699      H1708   1.082       .  S
C1700      C1703   1.377       .  A
N1701      C1702   1.363       .  A
N1701      H1711   1.043       .  S
C1702      C1703   1.397       .  A
C1703      H1709   1.082       .  S
N1704      C1705   1.356       .  A
N1704      H1712   1.045       .  S
C1705      C1706   1.400       .  A
C1706      H1710   1.082       .  S
C1713      C1718   1.385       .  A
C1713      C1714   1.403       .  A
C1713      N1719   1.342       .  A
C1714      C1715   1.402       .  A
C1714      H1725   1.082       .  S
C1715      C1724   1.377       .  A
C1715      C1716   1.384       .  A
C1716      C1717   1.405       .  A
C1716      N1722   1.345       .  A
C1717      C1718   1.404       .  A
C1717      H1726   1.082       .  S
C1718      C1721   1.381       .  A
N1719      C1720   1.354       .  A
N1719      H1729   1.045       .  S
C1720      C1721   1.394       .  A
C1721      H1727   1.082       .  S
N1722      C1723   1.356       .  A
N1722      H1730   1.045       .  S
C1723      C1724   1.395       .  A
C1724      H1728   1.082       .  S
C1731      C1736   1.384       .  A
C1731      C1732   1.406       .  A
C1731      N1737   1.343       .  A
C1732      C1733   1.404       .  A
C1732      H1743   1.082       .  S
C1733      C1742   1.383       .  A
C1733      C1734   1.382       .  A
C1734      C1735   1.403   1_556  A
C1734      N1740   1.340   1_556  A
C1735      C1736   1.400   1_554  A
C1735      H1744   1.082       .  S
C1736      C1739   1.379   1_556  A
N1737      C1738   1.358       .  A
N1737      H1747   1.045       .  S
C1738      C1739   1.393   1_556  A
C1739      H1745   1.082       .  S
N1740      C1741   1.359   1_554  A
N1740      H1748   1.043       .  S
C1741      C1742   1.400       .  A
C1742      H1746   1.082       .  S
C1749      C1754   1.384       .  A
C1749      C1750   1.408       .  A
C1749      N1755   1.348       .  A
C1750      C1751   1.408       .  A
C1750      H1761   1.082       .  S
C1751      C1760   1.384       .  A
C1751      C1752   1.384       .  A
C1752      C1753   1.404       .  A
C1752      N1758   1.345       .  A
C1753      C1754   1.403       .  A
C1753      H1762   1.082       .  S
C1754      C1757   1.377       .  A
N1755      C1756   1.357       .  A
N1755      H1765   1.044       .  S
C1756      C1757   1.395       .  A
C1757      H1763   1.083       .  S
N1758      C1759   1.355       .  A
N1758      H1766   1.045       .  S
C1759      C1760   1.398       .  A
C1760      H1764   1.082       .  S
C1767      C1772   1.385       .  A
C1767      C1768   1.408       .  A
C1767      N1773   1.348       .  A
C1768      C1769   1.407       .  A
C1768      H1779   1.082       .  S
C1769      C1778   1.383       .  A
C1769      C1770   1.384   1_565  A
C1770      C1771   1.402       .  A
C1770      N1776   1.343       .  A
C1771      C1772   1.401   1_545  A
C1771      H1780   1.082       .  S
C1772      C1775   1.376   1_565  A
N1773      C1774   1.357       .  A
N1773      H1783   1.044       .  S
C1774      C1775   1.392   1_565  A
C1775      H1781   1.083       .  S
N1776      C1777   1.355   1_545  A
N1776      H1784   1.045       .  S
C1777      C1778   1.398       .  A
C1778      H1782   1.082       .  S
C1785      C1790   1.382       .  A
C1785      C1786   1.406       .  A
C1785      N1791   1.345       .  A
C1786      C1787   1.404       .  A
C1786      H1797   1.082       .  S
C1787      C1796   1.380       .  A
C1787      C1788   1.382       .  A
C1788      C1789   1.406       .  A
C1788      N1794   1.344       .  A
C1789      C1790   1.405       .  A
C1789      H1798   1.082       .  S
C1790      C1793   1.380       .  A
N1791      C1792   1.360       .  A
N1791      H1801   1.042       .  S
C1792      C1793   1.399       .  A
C1793      H1799   1.082       .  S
N1794      C1795   1.358       .  A
N1794      H1802   1.045       .  S
C1795      C1796   1.401       .  A
C1796      H1800   1.081   1_565  S
C1803      C1808   1.383       .  A
C1803      C1804   1.403       .  A
C1803      N1809   1.341       .  A
C1804      C1805   1.401       .  A
C1804      H1815   1.082       .  S
C1805      C1814   1.378       .  A
C1805      C1806   1.381       .  A
C1806      C1807   1.413       .  A
C1806      N1812   1.349       .  A
C1807      C1808   1.412       .  A
C1807      H1816   1.082       .  S
C1808      C1811   1.392       .  A
N1809      C1810   1.358       .  A
N1809      H1819   1.044       .  S
C1810      C1811   1.401       .  A
C1811      H1817   1.082       .  S
N1812      C1813   1.362       .  A
N1812      H1820   1.044       .  S
C1813      C1814   1.399       .  A
C1814      H1818   1.081       .  S
C1821      C1826   1.382       .  A
C1821      C1822   1.413       .  A
C1821      N1827   1.350       .  A
C1822      C1823   1.411       .  A
C1822      H1833   1.082       .  S
C1823      C1832   1.391       .  A
C1823      C1824   1.383       .  A
C1824      C1825   1.404       .  A
C1824      N1830   1.342       .  A
C1825      C1826   1.402       .  A
C1825      H1834   1.082       .  S
C1826      C1829   1.379       .  A
N1827      C1828   1.363       .  A
N1827      H1837   1.043       .  S
C1828      C1829   1.397       .  A
C1829      H1835   1.082       .  S
N1830      C1831   1.357       .  A
N1830      H1838   1.045       .  S
C1831      C1832   1.399       .  A
C1832      H1836   1.082       .  S
C1839      C1844   1.382       .  A
C1839      C1840   1.406       .  A
C1839      N1845   1.343       .  A
C1840      C1841   1.404       .  A
C1840      H1851   1.082       .  S
C1841      C1850   1.382       .  A
C1841      C1842   1.384       .  A
C1842      C1843   1.402       .  A
C1842      N1848   1.340       .  A
C1843      C1844   1.400       .  A
C1843      H1852   1.082       .  S
C1844      C1847   1.377       .  A
N1845      C1846   1.360       .  A
N1845      H1855   1.043       .  S
C1846      C1847   1.397       .  A
C1847      H1853   1.082       .  S
N1848      C1849   1.355       .  A
N1848      H1856   1.045       .  S
C1849      C1850   1.396       .  A
C1850      H1854   1.082       .  S
C1857      C1862   1.384       .  A
C1857      C1858   1.404       .  A
C1857      N1863   1.344       .  A
C1858      C1859   1.403       .  A
C1858      H1869   1.082       .  S
C1859      C1868   1.378       .  A
C1859      C1860   1.382       .  A
C1860      C1861   1.404       .  A
C1860      N1866   1.342       .  A
C1861      C1862   1.403       .  A
C1861      H1870   1.082       .  S
C1862      C1865   1.379       .  A
N1863      C1864   1.357       .  A
N1863      H1873   1.045       .  S
C1864      C1865   1.396       .  A
C1865      H1871   1.082       .  S
N1866      C1867   1.359       .  A
N1866      H1874   1.043       .  S
C1867      C1868   1.399       .  A
C1868      H1872   1.082       .  S
C1875      C1880   1.383       .  A
C1875      C1876   1.403       .  A
C1875      N1881   1.345       .  A
C1876      C1877   1.403       .  A
C1876      H1887   1.082       .  S
C1877      C1886   1.377       .  A
C1877      C1878   1.384       .  A
C1878      C1879   1.406       .  A
C1878      N1884   1.347       .  A
C1879      C1880   1.407       .  A
C1879      H1888   1.082       .  S
C1880      C1883   1.379       .  A
N1881      C1882   1.358       .  A
N1881      H1891   1.044       .  S
C1882      C1883   1.401       .  A
C1883      H1889   1.081       .  S
N1884      C1885   1.358       .  A
N1884      H1892   1.045       .  S
C1885      C1886   1.395       .  A
C1886      H1890   1.082       .  S
C1893      C1898   1.385       .  A
C1893      C1894   1.402       .  A
C1893      N1899   1.342       .  A
C1894      C1895   1.400       .  A
C1894      H1905   1.082       .  S
C1895      C1904   1.377       .  A
C1895      C1896   1.385       .  A
C1896      C1897   1.402       .  A
C1896      N1902   1.341       .  A
C1897      C1898   1.402       .  A
C1897      H1906   1.082       .  S
C1898      C1901   1.377       .  A
N1899      C1900   1.355       .  A
N1899      H1909   1.045       .  S
C1900      C1901   1.396       .  A
C1901      H1907   1.083       .  S
N1902      C1903   1.353       .  A
N1902      H1910   1.045       .  S
C1903      C1904   1.391       .  A
C1904      H1908   1.082       .  S
C1911      C1916   1.382       .  A
C1911      C1912   1.411       .  A
C1911      N1917   1.347       .  A
C1912      C1913   1.409       .  A
C1912      H1923   1.082       .  S
C1913      C1922   1.389       .  A
C1913      C1914   1.383       .  A
C1914      C1915   1.404       .  A
C1914      N1920   1.341       .  A
C1915      C1916   1.401       .  A
C1915      H1924   1.082       .  S
C1916      C1919   1.380       .  A
N1917      C1918   1.360       .  A
N1917      H1927   1.044       .  S
C1918      C1919   1.399       .  A
C1919      H1925   1.081       .  S
N1920      C1921   1.359       .  A
N1920      H1928   1.044       .  S
C1921      C1922   1.401       .  A
C1922      H1926   1.082       .  S
C1929      C1934   1.385   1_655  A
C1929      C1930   1.401       .  A
C1929      N1935   1.341       .  A
C1930      C1931   1.401       .  A
C1930      H1941   1.082       .  S
C1931      C1940   1.376       .  A
C1931      C1932   1.386       .  A
C1932      C1933   1.401   1_655  A
C1932      N1938   1.342   1_655  A
C1933      C1934   1.400       .  A
C1933      H1942   1.082       .  S
C1934      C1937   1.374       .  A
N1935      C1936   1.354   1_655  A
N1935      H1945   1.045       .  S
C1936      C1937   1.393       .  A
C1937      H1943   1.082       .  S
N1938      C1939   1.353   1_455  A
N1938      H1946   1.045       .  S
C1939      C1940   1.392       .  A
C1940      H1944   1.083       .  S
C1947      C1952   1.384       .  A
C1947      C1948   1.406       .  A
C1947      N1953   1.348       .  A
C1948      C1949   1.406       .  A
C1948      H1959   1.082       .  S
C1949      C1958   1.380       .  A
C1949      C1950   1.385       .  A
C1950      C1951   1.404       .  A
C1950      N1956   1.345       .  A
C1951      C1952   1.404       .  A
C1951      H1960   1.082       .  S
C1952      C1955   1.378       .  A
N1953      C1954   1.357       .  A
N1953      H1963   1.045       .  S
C1954      C1955   1.395       .  A
C1955      H1961   1.082       .  S
N1956      C1957   1.355       .  A
N1956      H1964   1.045       .  S
C1957      C1958   1.396       .  A
C1958      H1962   1.082       .  S
C1965      C1970   1.385       .  A
C1965      C1966   1.403       .  A
C1965      N1971   1.342       .  A
C1966      C1967   1.402       .  A
C1966      H1977   1.082       .  S
C1967      C1976   1.380       .  A
C1967      C1968   1.384       .  A
C1968      C1969   1.405       .  A
C1968      N1974   1.343       .  A
C1969      C1970   1.404       .  A
C1969      H1978   1.082       .  S
C1970      C1973   1.381       .  A
N1971      C1972   1.354       .  A
N1971      H1981   1.045       .  S
C1972      C1973   1.396       .  A
C1973      H1979   1.082       .  S
N1974      C1975   1.356       .  A
N1974      H1982   1.044       .  S
C1975      C1976   1.393       .  A
C1976      H1980   1.082       .  S
C1983      C1988   1.385       .  A
C1983      C1984   1.401       .  A
C1983      N1989   1.342       .  A
C1984      C1985   1.400       .  A
C1984      H1995   1.082       .  S
C1985      C1994   1.376       .  A
C1985      C1986   1.385       .  A
C1986      C1987   1.405       .  A
C1986      N1992   1.344       .  A
C1987      C1988   1.404       .  A
C1987      H1996   1.082       .  S
C1988      C1991   1.379       .  A
N1989      C1990   1.353       .  A
N1989      H1999   1.045       .  S
C1990      C1991   1.395       .  A
C1991      H1997   1.082       .  S
N1992      C1993   1.356       .  A
N1992      H2000   1.045       .  S
C1993      C1994   1.393       .  A
C1994      H1998   1.082       .  S
C2001      C2006   1.384       .  A
C2001      C2002   1.406       .  A
C2001      N2007   1.344       .  A
C2002      C2003   1.404       .  A
C2002      H2013   1.082       .  S
C2003      C2012   1.381       .  A
C2003      C2004   1.385       .  A
C2004      C2005   1.401       .  A
C2004      N2010   1.341       .  A
C2005      C2006   1.400       .  A
C2005      H2014   1.082       .  S
C2006      C2009   1.376       .  A
N2007      C2008   1.357       .  A
N2007      H2017   1.045       .  S
C2008      C2009   1.394       .  A
C2009      H2015   1.082       .  S
N2010      C2011   1.352       .  A
N2010      H2018   1.044       .  S
C2011      C2012   1.394       .  A
C2012      H2016   1.082       .  S
C2019      C2024   1.384       .  A
C2019      C2020   1.401       .  A
C2019      N2025   1.342       .  A
C2020      C2021   1.400       .  A
C2020      H2031   1.082       .  S
C2021      C2030   1.375       .  A
C2021      C2022   1.385       .  A
C2022      C2023   1.406       .  A
C2022      N2028   1.345       .  A
C2023      C2024   1.405       .  A
C2023      H2032   1.082       .  S
C2024      C2027   1.380       .  A
N2025      C2026   1.355       .  A
N2025      H2035   1.045       .  S
C2026      C2027   1.397       .  A
C2027      H2033   1.082       .  S
N2028      C2029   1.356       .  A
N2028      H2036   1.045       .  S
C2029      C2030   1.391       .  A
C2030      H2034   1.082       .  S
C2037      C2042   1.384       .  A
C2037      C2038   1.406       .  A
C2037      N2043   1.345       .  A
C2038      C2039   1.405       .  A
C2038      H2049   1.082       .  S
C2039      C2048   1.382       .  A
C2039      C2040   1.385       .  A
C2040      C2041   1.403       .  A
C2040      N2046   1.342       .  A
C2041      C2042   1.402       .  A
C2041      H2050   1.082       .  S
C2042      C2045   1.379       .  A
N2043      C2044   1.357       .  A
N2043      H2053   1.045       .  S
C2044      C2045   1.394       .  A
C2045      H2051   1.082       .  S
N2046      C2047   1.354       .  A
N2046      H2054   1.045       .  S
C2047      C2048   1.395       .  A
C2048      H2052   1.082       .  S
C2055      C2060   1.382       .  A
C2055      C2056   1.409       .  A
C2055      N2061   1.349       .  A
C2056      C2057   1.409       .  A
C2056      H2067   1.082       .  S
C2057      C2066   1.381       .  A
C2057      C2058   1.384       .  A
C2058      C2059   1.402       .  A
C2058      N2064   1.346       .  A
C2059      C2060   1.403       .  A
C2059      H2068   1.082       .  S
C2060      C2063   1.375       .  A
N2061      C2062   1.361       .  A
N2061      H2071   1.044       .  S
C2062      C2063   1.399       .  A
C2063      H2069   1.081       .  S
N2064      C2065   1.355       .  A
N2064      H2072   1.045       .  S
C2065      C2066   1.399       .  A
C2066      H2070   1.082       .  S
C2073      C2078   1.383       .  A
C2073      C2074   1.403       .  A
C2073      N2079   1.346       .  A
C2074      C2075   1.404       .  A
C2074      H2085   1.082       .  S
C2075      C2084   1.374       .  A
C2075      C2076   1.382       .  A
C2076      C2077   1.411       .  A
C2076      N2082   1.353       .  A
C2077      C2078   1.412       .  A
C2077      H2086   1.082       .  S
C2078      C2081   1.384       .  A
N2079      C2080   1.358       .  A
N2079      H2089   1.044       .  S
C2080      C2081   1.404       .  A
C2081      H2087   1.082       .  S
N2082      C2083   1.361       .  A
N2082      H2090   1.044       .  S
C2083      C2084   1.399       .  A
C2084      H2088   1.081       .  S
C2091      C2096   1.385       .  A
C2091      C2092   1.402       .  A
C2091      N2097   1.341       .  A
C2092      C2093   1.400       .  A
C2092      H2103   1.082       .  S
C2093      C2102   1.378       .  A
C2093      C2094   1.384       .  A
C2094      C2095   1.405       .  A
C2094      N2100   1.343       .  A
C2095      C2096   1.404       .  A
C2095      H2104   1.082       .  S
C2096      C2099   1.382       .  A
N2097      C2098   1.353       .  A
N2097      H2107   1.045       .  S
C2098      C2099   1.394       .  A
C2099      H2105   1.082       .  S
N2100      C2101   1.356       .  A
N2100      H2108   1.045       .  S
C2101      C2102   1.394       .  A
C2102      H2106   1.082       .  S
C2109      C2114   1.382       .  A
C2109      C2110   1.404       .  A
C2109      N2115   1.341       .  A
C2110      C2111   1.402       .  A
C2110      H2121   1.082       .  S
C2111      C2120   1.382       .  A
C2111      C2112   1.383       .  A
C2112      C2113   1.410       .  A
C2112      N2118   1.346       .  A
C2113      C2114   1.408       .  A
C2113      H2122   1.082       .  S
C2114      C2117   1.386       .  A
N2115      C2116   1.358       .  A
N2115      H2125   1.043       .  S
C2116      C2117   1.402       .  A
C2117      H2123   1.082       .  S
N2118      C2119   1.360       .  A
N2118      H2126   1.045       .  S
C2119      C2120   1.395       .  A
C2120      H2124   1.082       .  S
C2127      C2132   1.384       .  A
C2127      C2128   1.402       .  A
C2127      N2133   1.341       .  A
C2128      C2129   1.400       .  A
C2128      H2139   1.082       .  S
C2129      C2138   1.377       .  A
C2129      C2130   1.382       .  A
C2130      C2131   1.410       .  A
C2130      N2136   1.346       .  A
C2131      C2132   1.408       .  A
C2131      H2140   1.082       .  S
C2132      C2135   1.387       .  A
N2133      C2134   1.355       .  A
N2133      H2143   1.045       .  S
C2134      C2135   1.398       .  A
C2135      H2141   1.082       .  S
N2136      C2137   1.362       .  A
N2136      H2144   1.043       .  S
C2137      C2138   1.396       .  A
C2138      H2142   1.082       .  S
C2145      C2150   1.385       .  A
C2145      C2146   1.405       .  A
C2145      N2151   1.344       .  A
C2146      C2147   1.404       .  A
C2146      H2157   1.082       .  S
C2147      C2156   1.379       .  A
C2147      C2148   1.384       .  A
C2148      C2149   1.404       .  A
C2148      N2154   1.344       .  A
C2149      C2150   1.403       .  A
C2149      H2158   1.082       .  S
C2150      C2153   1.380       .  A
N2151      C2152   1.355       .  A
N2151      H2161   1.045       .  S
C2152      C2153   1.394       .  A
C2153      H2159   1.082       .  S
N2154      C2155   1.356       .  A
N2154      H2162   1.045       .  S
C2155      C2156   1.397       .  A
C2156      H2160   1.082       .  S
C2163      C2168   1.384       .  A
C2163      C2164   1.406       .  A
C2163      N2169   1.349       .  A
C2164      C2165   1.407       .  A
C2164      H2175   1.082       .  S
C2165      C2174   1.377       .  A
C2165      C2166   1.383       .  A
C2166      C2167   1.402       .  A
C2166      N2172   1.345       .  A
C2167      C2168   1.403       .  A
C2167      H2176   1.082       .  S
C2168      C2171   1.374       .  A
N2169      C2170   1.357       .  A
N2169      H2179   1.044       .  S
C2170      C2171   1.396       .  A
C2171      H2177   1.083       .  S
N2172      C2173   1.357       .  A
N2172      H2180   1.044       .  S
C2173      C2174   1.400       .  A
C2174      H2178   1.081       .  S
C2181      C2186   1.385       .  A
C2181      C2182   1.403       .  A
C2181      N2187   1.342       .  A
C2182      C2183   1.402       .  A
C2182      H2193   1.082       .  S
C2183      C2192   1.378       .  A
C2183      C2184   1.385       .  A
C2184      C2185   1.403       .  A
C2184      N2190   1.342       .  A
C2185      C2186   1.402       .  A
C2185      H2194   1.082       .  S
C2186      C2189   1.378       .  A
N2187      C2188   1.353       .  A
N2187      H2197   1.045       .  S
C2188      C2189   1.394       .  A
C2189      H2195   1.082       .  S
N2190      C2191   1.354       .  A
N2190      H2198   1.045       .  S
C2191      C2192   1.395       .  A
C2192      H2196   1.082       .  S
C2199      C2204   1.381       .  A
C2199      C2200   1.410       .  A
C2199      N2205   1.349       .  A
C2200      C2201   1.410       .  A
C2200      H2211   1.082       .  S
C2201      C2210   1.385       .  A
C2201      C2202   1.383       .  A
C2202      C2203   1.401       .  A
C2202      N2208   1.342       .  A
C2203      C2204   1.401       .  A
C2203      H2212   1.082       .  S
C2204      C2207   1.374       .  A
N2205      C2206   1.361       .  A
N2205      H2215   1.044       .  S
C2206      C2207   1.400       .  A
C2207      H2213   1.080       .  S
N2208      C2209   1.358       .  A
N2208      H2216   1.044       .  S
C2209      C2210   1.401       .  A
C2210      H2214   1.082       .  S
C2217      C2222   1.385   1_554  A
C2217      C2218   1.402       .  A
C2217      N2223   1.342       .  A
C2218      C2219   1.401       .  A
C2218      H2229   1.082       .  S
C2219      C2228   1.377       .  A
C2219      C2220   1.384   1_554  A
C2220      C2221   1.402       .  A
C2220      N2226   1.342       .  A
C2221      C2222   1.401       .  A
C2221      H2230   1.082       .  S
C2222      C2225   1.376       .  A
N2223      C2224   1.353       .  A
N2223      H2233   1.045       .  S
C2224      C2225   1.391   1_554  A
C2225      H2231   1.082       .  S
N2226      C2227   1.355       .  A
N2226      H2234   1.045       .  S
C2227      C2228   1.395   1_556  A
C2228      H2232   1.082       .  S
C2235      C2240   1.384       .  A
C2235      C2236   1.407       .  A
C2235      N2241   1.343       .  A
C2236      C2237   1.405       .  A
C2236      H2247   1.082       .  S
C2237      C2246   1.382       .  A
C2237      C2238   1.382       .  A
C2238      C2239   1.402       .  A
C2238      N2244   1.339       .  A
C2239      C2240   1.399       .  A
C2239      H2248   1.082       .  S
C2240      C2243   1.378       .  A
N2241      C2242   1.358       .  A
N2241      H2251   1.045       .  S
C2242      C2243   1.393       .  A
C2243      H2249   1.082       .  S
N2244      C2245   1.358       .  A
N2244      H2252   1.043       .  S
C2245      C2246   1.400       .  A
C2246      H2250   1.082       .  S
C2253      C2258   1.382       .  A
C2253      C2254   1.402       .  A
C2253      N2259   1.344       .  A
C2254      C2255   1.403       .  A
C2254      H2265   1.082       .  S
C2255      C2264   1.374       .  A
C2255      C2256   1.385       .  A
C2256      C2257   1.405       .  A
C2256      N2262   1.348       .  A
C2257      C2258   1.405       .  A
C2257      H2266   1.082       .  S
C2258      C2261   1.377       .  A
N2259      C2260   1.356       .  A
N2259      H2269   1.045       .  S
C2260      C2261   1.401       .  A
C2261      H2267   1.081       .  S
N2262      C2263   1.355       .  A
N2262      H2270   1.045       .  S
C2263      C2264   1.396       .  A
C2264      H2268   1.083       .  S
C2271      C2276   1.385       .  A
C2271      C2272   1.404       .  A
C2271      N2277   1.341       .  A
C2272      C2273   1.402       .  A
C2272      H2283   1.082       .  S
C2273      C2282   1.380       .  A
C2273      C2274   1.385       .  A
C2274      C2275   1.402       .  A
C2274      N2280   1.341       .  A
C2275      C2276   1.400       .  A
C2275      H2284   1.082       .  S
C2276      C2279   1.377       .  A
N2277      C2278   1.354   1_556  A
N2277      H2287   1.045       .  S
C2278      C2279   1.393   1_554  A
C2279      H2285   1.082       .  S
N2280      C2281   1.354       .  A
N2280      H2288   1.045       .  S
C2281      C2282   1.395       .  A
C2282      H2286   1.082       .  S
C2289      C2294   1.386   1_655  A
C2289      C2290   1.398       .  A
C2289      N2295   1.338       .  A
C2290      C2291   1.396       .  A
C2290      H2301   1.082       .  S
C2291      C2300   1.372       .  A
C2291      C2292   1.385   1_655  A
C2292      C2293   1.405       .  A
C2292      N2298   1.344       .  A
C2293      C2294   1.404       .  A
C2293      H2302   1.082       .  S
C2294      C2297   1.380       .  A
N2295      C2296   1.351   1_655  A
N2295      H2305   1.045       .  S
C2296      C2297   1.394       .  A
C2297      H2303   1.082       .  S
N2298      C2299   1.357       .  A
N2298      H2306   1.045       .  S
C2299      C2300   1.390   1_455  A
C2300      H2304   1.082       .  S
C2307      C2312   1.382   1_655  A
C2307      C2308   1.405       .  A
C2307      N2313   1.343       .  A
C2308      C2309   1.403       .  A
C2308      H2319   1.082       .  S
C2309      C2318   1.381       .  A
C2309      C2310   1.384   1_655  A
C2310      C2311   1.401       .  A
C2310      N2316   1.340       .  A
C2311      C2312   1.400       .  A
C2311      H2320   1.082       .  S
C2312      C2315   1.375       .  A
N2313      C2314   1.359   1_655  A
N2313      H2323   1.043       .  S
C2314      C2315   1.398       .  A
C2315      H2321   1.081       .  S
N2316      C2317   1.355       .  A
N2316      H2324   1.045       .  S
C2317      C2318   1.396   1_455  A
C2318      H2322   1.082       .  S
C2325      C2330   1.383       .  A
C2325      C2326   1.402       .  A
C2325      N2331   1.340       .  A
C2326      C2327   1.401       .  A
C2326      H2337   1.082       .  S
C2327      C2336   1.376       .  A
C2327      C2328   1.383       .  A
C2328      C2329   1.403       .  A
C2328      N2334   1.341       .  A
C2329      C2330   1.401       .  A
C2329      H2338   1.082       .  S
C2330      C2333   1.377       .  A
N2331      C2332   1.356       .  A
N2331      H2341   1.045       .  S
C2332      C2333   1.398       .  A
C2333      H2339   1.081   1_554  S
N2334      C2335   1.359       .  A
N2334      H2342   1.043       .  S
C2335      C2336   1.396       .  A
C2336      H2340   1.082       .  S
C2343      C2348   1.382       .  A
C2343      C2344   1.403       .  A
C2343      N2349   1.344       .  A
C2344      C2345   1.403       .  A
C2344      H2355   1.082       .  S
C2345      C2354   1.376       .  A
C2345      C2346   1.384       .  A
C2346      C2347   1.406       .  A
C2346      N2352   1.347       .  A
C2347      C2348   1.407       .  A
C2347      H2356   1.082       .  S
C2348      C2351   1.380       .  A
N2349      C2350   1.356       .  A
N2349      H2359   1.045       .  S
C2350      C2351   1.402       .  A
C2351      H2357   1.081       .  S
N2352      C2353   1.356       .  A
N2352      H2360   1.045       .  S
C2353      C2354   1.396       .  A
C2354      H2358   1.082       .  S
C2361      C2366   1.383   1_545  A
C2361      C2362   1.400       .  A
C2361      N2367   1.342       .  A
C2362      C2363   1.399       .  A
C2362      H2373   1.082       .  S
C2363      C2372   1.372       .  A
C2363      C2364   1.385   1_545  A
C2364      C2365   1.404       .  A
C2364      N2370   1.346       .  A
C2365      C2366   1.405       .  A
C2365      H2374   1.082       .  S
C2366      C2369   1.377       .  A
N2367      C2368   1.356   1_545  A
N2367      H2377   1.044       .  S
C2368      C2369   1.400       .  A
C2369      H2375   1.081       .  S
N2370      C2371   1.356       .  A
N2370      H2378   1.045       .  S
C2371      C2372   1.394   1_565  A
C2372      H2376   1.083       .  S
C2379      C2384   1.385       .  A
C2379      C2380   1.403   1_565  A
C2379      N2385   1.340   1_565  A
C2380      C2381   1.401   1_545  A
C2380      H2391   1.082       .  S
C2381      C2390   1.379   1_565  A
C2381      C2382   1.384       .  A
C2382      C2383   1.404       .  A
C2382      N2388   1.341       .  A
C2383      C2384   1.402       .  A
C2383      H2392   1.082       .  S
C2384      C2387   1.381       .  A
N2385      C2386   1.353   1_545  A
N2385      H2395   1.045       .  S
C2386      C2387   1.393       .  A
C2387      H2393   1.082       .  S
N2388      C2389   1.355       .  A
N2388      H2396   1.045       .  S
C2389      C2390   1.394   1_565  A
C2390      H2394   1.082       .  S
C2397      C2402   1.384       .  A
C2397      C2398   1.407       .  A
C2397      N2403   1.344       .  A
C2398      C2399   1.405       .  A
C2398      H2409   1.082       .  S
C2399      C2408   1.382       .  A
C2399      C2400   1.382       .  A
C2400      C2401   1.399       .  A
C2400      N2406   1.337       .  A
C2401      C2402   1.396       .  A
C2401      H2410   1.082       .  S
C2402      C2405   1.375       .  A
N2403      C2404   1.358       .  A
N2403      H2413   1.045       .  S
C2404      C2405   1.392       .  A
C2405      H2411   1.082       .  S
N2406      C2407   1.356       .  A
N2406      H2414   1.042       .  S
C2407      C2408   1.400       .  A
C2408      H2412   1.082       .  S
C2415      C2420   1.381       .  A
C2415      C2416   1.412       .  A
C2415      N2421   1.351       .  A
C2416      C2417   1.411       .  A
C2416      H2427   1.082       .  S
C2417      C2426   1.386       .  A
C2417      C2418   1.382       .  A
C2418      C2419   1.400       .  A
C2418      N2424   1.341       .  A
C2419      C2420   1.399       .  A
C2419      H2428   1.083       .  S
C2420      C2423   1.372       .  A
N2421      C2422   1.362       .  A
N2421      H2431   1.044       .  S
C2422      C2423   1.398       .  A
C2423      H2429   1.081       .  S
N2424      C2425   1.359       .  A
N2424      H2432   1.042       .  S
C2425      C2426   1.403       .  A
C2426      H2430   1.082       .  S
C2433      C2438   1.383       .  A
C2433      C2434   1.402       .  A
C2433      N2439   1.344       .  A
C2434      C2435   1.402       .  A
C2434      H2445   1.082       .  S
C2435      C2444   1.374       .  A
C2435      C2436   1.384       .  A
C2436      C2437   1.405   1_556  A
C2436      N2442   1.347   1_556  A
C2437      C2438   1.406   1_554  A
C2437      H2446   1.082       .  S
C2438      C2441   1.377   1_556  A
N2439      C2440   1.357       .  A
N2439      H2449   1.044       .  S
C2440      C2441   1.400   1_556  A
C2441      H2447   1.081       .  S
N2442      C2443   1.357   1_554  A
N2442      H2450   1.045       .  S
C2443      C2444   1.395       .  A
C2444      H2448   1.082       .  S
C2451      C2456   1.384       .  A
C2451      C2452   1.405       .  A
C2451      N2457   1.344       .  A
C2452      C2453   1.403       .  A
C2452      H2463   1.082       .  S
C2453      C2462   1.380       .  A
C2453      C2454   1.384       .  A
C2454      C2455   1.408       .  A
C2454      N2460   1.346       .  A
C2455      C2456   1.407       .  A
C2455      H2464   1.082       .  S
C2456      C2459   1.384       .  A
N2457      C2458   1.357       .  A
N2457      H2467   1.045       .  S
C2458      C2459   1.398       .  A
C2459      H2465   1.082       .  S
N2460      C2461   1.357       .  A
N2460      H2468   1.045       .  S
C2461      C2462   1.393       .  A
C2462      H2466   1.082       .  S
C2469      C2474   1.384   1_655  A
C2469      C2470   1.405       .  A
C2469      N2475   1.343       .  A
C2470      C2471   1.404       .  A
C2470      H2481   1.082       .  S
C2471      C2480   1.380       .  A
C2471      C2472   1.382   1_655  A
C2472      C2473   1.403       .  A
C2472      N2478   1.341       .  A
C2473      C2474   1.401       .  A
C2473      H2482   1.082       .  S
C2474      C2477   1.378       .  A
N2475      C2476   1.357   1_655  A
N2475      H2485   1.045       .  S
C2476      C2477   1.395       .  A
C2477      H2483   1.082       .  S
N2478      C2479   1.358       .  A
N2478      H2486   1.043       .  S
C2479      C2480   1.399   1_455  A
C2480      H2484   1.082       .  S
C2487      C2492   1.385   1_455  A
C2487      C2488   1.403       .  A
C2487      N2493   1.341       .  A
C2488      C2489   1.401       .  A
C2488      H2499   1.082       .  S
C2489      C2498   1.378       .  A
C2489      C2490   1.385   1_455  A
C2490      C2491   1.402       .  A
C2490      N2496   1.340       .  A
C2491      C2492   1.400       .  A
C2491      H2500   1.082       .  S
C2492      C2495   1.379       .  A
N2493      C2494   1.354   1_455  A
N2493      H2503   1.045       .  S
C2494      C2495   1.392       .  A
C2495      H2501   1.082       .  S
N2496      C2497   1.354   1_655  A
N2496      H2504   1.045       .  S
C2497      C2498   1.393       .  A
C2498      H2502   1.082       .  S
C2505      C2510   1.385       .  A
C2505      C2506   1.402       .  A
C2505      N2511   1.342       .  A
C2506      C2507   1.401       .  A
C2506      H2517   1.082       .  S
C2507      C2516   1.375       .  A
C2507      C2508   1.385       .  A
C2508      C2509   1.404       .  A
C2508      N2514   1.344       .  A
C2509      C2510   1.404       .  A
C2509      H2518   1.082       .  S
C2510      C2513   1.379       .  A
N2511      C2512   1.355       .  A
N2511      H2521   1.045       .  S
C2512      C2513   1.396       .  A
C2513      H2519   1.082       .  S
N2514      C2515   1.354       .  A
N2514      H2522   1.045       .  S
C2515      C2516   1.392       .  A
C2516      H2520   1.083       .  S
C2523      C2528   1.383       .  A
C2523      C2524   1.400       .  A
C2523      N2529   1.340       .  A
C2524      C2525   1.399       .  A
C2524      H2535   1.082       .  S
C2525      C2534   1.374       .  A
C2525      C2526   1.382       .  A
C2526      C2527   1.407       .  A
C2526      N2532   1.345       .  A
C2527      C2528   1.406       .  A
C2527      H2536   1.082       .  S
C2528      C2531   1.380       .  A
N2529      C2530   1.357       .  A
N2529      H2539   1.043       .  S
C2530      C2531   1.400       .  A
C2531      H2537   1.082       .  S
N2532      C2533   1.359       .  A
N2532      H2540   1.045       .  S
C2533      C2534   1.399       .  A
C2534      H2538   1.080       .  S
C2541      C2546   1.384       .  A
C2541      C2542   1.410       .  A
C2541      N2547   1.350       .  A
C2542      C2543   1.410       .  A
C2542      H2553   1.082       .  S
C2543      C2552   1.384       .  A
C2543      C2544   1.383       .  A
C2544      C2545   1.403       .  A
C2544      N2550   1.344       .  A
C2545      C2546   1.403       .  A
C2545      H2554   1.082       .  S
C2546      C2549   1.376       .  A
N2547      C2548   1.358       .  A
N2547      H2557   1.045       .  S
C2548      C2549   1.394       .  A
C2549      H2555   1.082       .  S
N2550      C2551   1.357       .  A
N2550      H2558   1.045       .  S
C2551      C2552   1.405       .  A
C2552      H2556   1.081       .  S
C2559      C2564   1.384       .  A
C2559      C2560   1.402       .  A
C2559      N2565   1.342       .  A
C2560      C2561   1.401       .  A
C2560      H2571   1.082       .  S
C2561      C2570   1.376       .  A
C2561      C2562   1.383       .  A
C2562      C2563   1.410       .  A
C2562      N2568   1.349       .  A
C2563      C2564   1.409       .  A
C2563      H2572   1.082       .  S
C2564      C2567   1.386       .  A
N2565      C2566   1.355       .  A
N2565      H2575   1.045       .  S
C2566      C2567   1.398       .  A
C2567      H2573   1.082       .  S
N2568      C2569   1.361       .  A
N2568      H2576   1.043       .  S
C2569      C2570   1.396       .  A
C2570      H2574   1.082       .  S
C2577      C2582   1.384       .  A
C2577      C2578   1.411       .  A
C2577      N2583   1.350       .  A
C2578      C2579   1.411       .  A
C2578      H2589   1.082       .  S
C2579      C2588   1.386       .  A
C2579      C2580   1.383       .  A
C2580      C2581   1.401       .  A
C2580      N2586   1.342       .  A
C2581      C2582   1.400       .  A
C2581      H2590   1.082       .  S
C2582      C2585   1.374       .  A
N2583      C2584   1.358       .  A
N2583      H2593   1.045       .  S
C2584      C2585   1.394       .  A
C2585      H2591   1.082       .  S
N2586      C2587   1.355       .  A
N2586      H2594   1.045       .  S
C2587      C2588   1.404       .  A
C2588      H2592   1.081       .  S
C2595      C2600   1.385   1_554  A
C2595      C2596   1.404       .  A
C2595      N2601   1.347       .  A
C2596      C2597   1.405       .  A
C2596      H2607   1.082       .  S
C2597      C2606   1.376       .  A
C2597      C2598   1.385   1_554  A
C2598      C2599   1.401       .  A
C2598      N2604   1.344       .  A
C2599      C2600   1.401       .  A
C2599      H2608   1.082       .  S
C2600      C2603   1.373       .  A
N2601      C2602   1.356       .  A
N2601      H2611   1.045       .  S
C2602      C2603   1.393   1_554  A
C2603      H2609   1.083       .  S
N2604      C2605   1.353       .  A
N2604      H2612   1.045       .  S
C2605      C2606   1.395   1_556  A
C2606      H2610   1.082       .  S
C2613      C2618   1.385   1_554  A
C2613      C2614   1.406       .  A
C2613      N2619   1.345       .  A
C2614      C2615   1.405   1_554  A
C2614      H2625   1.082       .  S
C2615      C2624   1.382       .  A
C2615      C2616   1.385       .  A
C2616      C2617   1.399       .  A
C2616      N2622   1.339       .  A
C2617      C2618   1.398       .  A
C2617      H2626   1.082       .  S
C2618      C2621   1.373       .  A
N2619      C2620   1.356       .  A
N2619      H2629   1.045       .  S
C2620      C2621   1.392   1_554  A
C2621      H2627   1.083       .  S
N2622      C2623   1.352       .  A
N2622      H2630   1.045       .  S
C2623      C2624   1.395       .  A
C2624      H2628   1.082       .  S
C2631      C2636   1.385   1_556  A
C2631      C2632   1.400       .  A
C2631      N2637   1.341       .  A
C2632      C2633   1.399       .  A
C2632      H2643   1.082       .  S
C2633      C2642   1.373       .  A
C2633      C2634   1.383   1_556  A
C2634      C2635   1.404       .  A
C2634      N2640   1.343       .  A
C2635      C2636   1.403       .  A
C2635      H2644   1.082       .  S
C2636      C2639   1.378       .  A
N2637      C2638   1.354   1_556  A
N2637      H2647   1.045       .  S
C2638      C2639   1.396       .  A
C2639      H2645   1.082       .  S
N2640      C2641   1.359   1_554  A
N2640      H2648   1.044       .  S
C2641      C2642   1.396       .  A
C2642      H2646   1.081       .  S
C2649      C2654   1.385       .  A
C2649      C2650   1.405       .  A
C2649      N2655   1.346       .  A
C2650      C2651   1.404       .  A
C2650      H2661   1.082       .  S
C2651      C2660   1.378       .  A
C2651      C2652   1.386       .  A
C2652      C2653   1.399       .  A
C2652      N2658   1.341       .  A
C2653      C2654   1.399       .  A
C2653      H2662   1.082       .  S
C2654      C2657   1.372       .  A
N2655      C2656   1.357       .  A
N2655      H2665   1.045       .  S
C2656      C2657   1.393       .  A
C2657      H2663   1.082       .  S
N2658      C2659   1.351       .  A
N2658      H2666   1.045       .  S
C2659      C2660   1.393       .  A
C2660      H2664   1.082       .  S
C2667      C2672   1.386   1_556  A
C2667      C2668   1.401       .  A
C2667      N2673   1.342       .  A
C2668      C2669   1.401       .  A
C2668      H2679   1.082       .  S
C2669      C2678   1.375       .  A
C2669      C2670   1.385       .  A
C2670      C2671   1.400   1_556  A
C2670      N2676   1.341   1_556  A
C2671      C2672   1.399       .  A
C2671      H2680   1.082       .  S
C2672      C2675   1.373       .  A
N2673      C2674   1.352   1_556  A
N2673      H2683   1.045       .  S
C2674      C2675   1.391       .  A
C2675      H2681   1.083       .  S
N2676      C2677   1.354   1_554  A
N2676      H2684   1.045       .  S
C2677      C2678   1.394       .  A
C2678      H2682   1.082       .  S
C2685      C2690   1.385   1_556  A
C2685      C2686   1.401       .  A
C2685      N2691   1.341       .  A
C2686      C2687   1.401       .  A
C2686      H2697   1.082       .  S
C2687      C2696   1.376       .  A
C2687      C2688   1.385   1_556  A
C2688      C2689   1.404       .  A
C2688      N2694   1.344       .  A
C2689      C2690   1.403       .  A
C2689      H2698   1.082       .  S
C2690      C2693   1.379       .  A
N2691      C2692   1.355       .  A
N2691      H2701   1.045       .  S
C2692      C2693   1.395   1_556  A
C2693      H2699   1.082       .  S
N2694      C2695   1.355       .  A
N2694      H2702   1.045       .  S
C2695      C2696   1.392   1_554  A
C2696      H2700   1.082       .  S
C2703      C2708   1.381       .  A
C2703      C2704   1.414       .  A
C2703      N2709   1.348       .  A
C2704      C2705   1.412       .  A
C2704      H2715   1.082       .  S
C2705      C2714   1.392       .  A
C2705      C2706   1.382       .  A
C2706      C2707   1.399       .  A
C2706      N2712   1.337       .  A
C2707      C2708   1.396       .  A
C2707      H2716   1.083       .  S
C2708      C2711   1.374       .  A
N2709      C2710   1.362       .  A
N2709      H2719   1.044       .  S
C2710      C2711   1.396       .  A
C2711      H2717   1.080   1_554  S
N2712      C2713   1.358       .  A
N2712      H2720   1.043       .  S
C2713      C2714   1.404       .  A
C2714      H2718   1.082       .  S
C2721      C2726   1.382       .  A
C2721      C2722   1.404       .  A
C2721      N2727   1.345       .  A
C2722      C2723   1.404       .  A
C2722      H2733   1.082       .  S
C2723      C2732   1.377       .  A
C2723      C2724   1.384       .  A
C2724      C2725   1.403       .  A
C2724      N2730   1.345       .  A
C2725      C2726   1.403       .  A
C2725      H2734   1.082       .  S
C2726      C2729   1.374       .  A
N2727      C2728   1.358       .  A
N2727      H2737   1.044       .  S
C2728      C2729   1.399       .  A
C2729      H2735   1.080       .  S
N2730      C2731   1.357       .  A
N2730      H2738   1.045       .  S
C2731      C2732   1.396       .  A
C2732      H2736   1.082       .  S
C2739      C2744   1.385       .  A
C2739      C2740   1.405       .  A
C2739      N2745   1.347       .  A
C2740      C2741   1.405       .  A
C2740      H2751   1.082       .  S
C2741      C2750   1.378       .  A
C2741      C2742   1.385       .  A
C2742      C2743   1.404       .  A
C2742      N2748   1.347       .  A
C2743      C2744   1.405       .  A
C2743      H2752   1.082       .  S
C2744      C2747   1.377       .  A
N2745      C2746   1.355       .  A
N2745      H2755   1.044       .  S
C2746      C2747   1.395       .  A
C2747      H2753   1.083       .  S
N2748      C2749   1.356       .  A
N2748      H2756   1.045       .  S
C2749      C2750   1.397       .  A
C2750      H2754   1.082       .  S
C2757      C2762   1.382       .  A
C2757      C2758   1.403       .  A
C2757      N2763   1.345       .  A
C2758      C2759   1.404       .  A
C2758      H2769   1.082       .  S
C2759      C2768   1.375       .  A
C2759      C2760   1.384       .  A
C2760      C2761   1.410       .  A
C2760      N2766   1.351       .  A
C2761      C2762   1.411       .  A
C2761      H2770   1.082       .  S
C2762      C2765   1.384       .  A
N2763      C2764   1.357       .  A
N2763      H2773   1.045       .  S
C2764      C2765   1.405       .  A
C2765      H2771   1.081       .  S
N2766      C2767   1.358       .  A
N2766      H2774   1.044       .  S
C2767      C2768   1.397       .  A
C2768      H2772   1.082       .  S
C2775      C2780   1.385       .  A
C2775      C2776   1.401       .  A
C2775      N2781   1.344       .  A
C2776      C2777   1.401       .  A
C2776      H2787   1.082       .  S
C2777      C2786   1.371       .  A
C2777      C2778   1.384       .  A
C2778      C2779   1.405       .  A
C2778      N2784   1.348       .  A
C2779      C2780   1.406       .  A
C2779      H2788   1.082       .  S
C2780      C2783   1.378       .  A
N2781      C2782   1.355       .  A
N2781      H2791   1.045       .  S
C2782      C2783   1.397       .  A
C2783      H2789   1.082       .  S
N2784      C2785   1.356       .  A
N2784      H2792   1.044       .  S
C2785      C2786   1.392       .  A
C2786      H2790   1.077       .  S
C2793      C2798   1.384       .  A
C2793      C2794   1.407       .  A
C2793      N2799   1.345       .  A
C2794      C2795   1.405       .  A
C2794      H2805   1.082       .  S
C2795      C2804   1.383       .  A
C2795      C2796   1.385       .  A
C2796      C2797   1.401       .  A
C2796      N2802   1.340       .  A
C2797      C2798   1.400       .  A
C2797      H2806   1.082       .  S
C2798      C2801   1.376       .  A
N2799      C2800   1.357       .  A
N2799      H2809   1.045       .  S
C2800      C2801   1.394       .  A
C2801      H2807   1.082       .  S
N2802      C2803   1.353       .  A
N2802      H2810   1.045       .  S
C2803      C2804   1.395       .  A
C2804      H2808   1.082       .  S
C2811      C2816   1.385       .  A
C2811      C2812   1.400       .  A
C2811      N2817   1.344       .  A
C2812      C2813   1.401       .  A
C2812      H2823   1.082       .  S
C2813      C2822   1.370       .  A
C2813      C2814   1.382       .  A
C2814      C2815   1.406       .  A
C2814      N2820   1.348       .  A
C2815      C2816   1.407       .  A
C2815      H2824   1.082       .  S
C2816      C2819   1.378       .  A
N2817      C2818   1.354       .  A
N2817      H2827   1.045       .  S
C2818      C2819   1.398       .  A
C2819      H2825   1.082       .  S
N2820      C2821   1.359       .  A
N2820      H2828   1.044       .  S
C2821      C2822   1.398       .  A
C2822      H2826   1.080       .  S
C2829      C2834   1.384       .  A
C2829      C2830   1.403       .  A
C2829      N2835   1.340       .  A
C2830      C2831   1.401       .  A
C2830      H2841   1.082       .  S
C2831      C2840   1.379       .  A
C2831      C2832   1.382       .  A
C2832      C2833   1.406       .  A
C2832      N2838   1.342       .  A
C2833      C2834   1.404       .  A
C2833      H2842   1.082       .  S
C2834      C2837   1.384       .  A
N2835      C2836   1.356       .  A
N2835      H2845   1.045       .  S
C2836      C2837   1.397       .  A
C2837      H2843   1.082       .  S
N2838      C2839   1.359       .  A
N2838      H2846   1.043       .  S
C2839      C2840   1.399       .  A
C2840      H2844   1.082       .  S
C2847      C2852   1.384       .  A
C2847      C2848   1.402       .  A
C2847      N2853   1.345       .  A
C2848      C2849   1.402       .  A
C2848      H2859   1.082       .  S
C2849      C2858   1.376       .  A
C2849      C2850   1.384       .  A
C2850      C2851   1.409       .  A
C2850      N2856   1.350       .  A
C2851      C2852   1.410       .  A
C2851      H2860   1.082       .  S
C2852      C2855   1.384       .  A
N2853      C2854   1.355       .  A
N2853      H2863   1.045       .  S
C2854      C2855   1.399       .  A
C2855      H2861   1.082       .  S
N2856      C2857   1.358       .  A
N2856      H2864   1.045       .  S
C2857      C2858   1.393       .  A
C2858      H2862   1.083       .  S
C2865      C2870   1.386       .  A
C2865      C2866   1.398       .  A
C2865      N2871   1.338       .  A
C2866      C2867   1.397       .  A
C2866      H2877   1.083       .  S
C2867      C2876   1.371       .  A
C2867      C2868   1.385       .  A
C2868      C2869   1.404       .  A
C2868      N2874   1.343       .  A
C2869      C2870   1.403       .  A
C2869      H2878   1.082       .  S
C2870      C2873   1.379       .  A
N2871      C2872   1.351       .  A
N2871      H2881   1.045       .  S
C2872      C2873   1.394       .  A
C2873      H2879   1.082       .  S
N2874      C2875   1.355       .  A
N2874      H2882   1.045       .  S
C2875      C2876   1.391       .  A
C2876      H2880   1.083       .  S
C2883      C2888   1.382       .  A
C2883      C2884   1.407       .  A
C2883      N2889   1.344       .  A
C2884      C2885   1.405       .  A
C2884      H2895   1.082       .  S
C2885      C2894   1.381       .  A
C2885      C2886   1.382       .  A
C2886      C2887   1.404       .  A
C2886      N2892   1.343       .  A
C2887      C2888   1.402       .  A
C2887      H2896   1.082       .  S
C2888      C2891   1.379       .  A
N2889      C2890   1.358       .  A
N2889      H2899   1.045       .  S
C2890      C2891   1.399       .  A
C2891      H2897   1.081       .  S
N2892      C2893   1.360       .  A
N2892      H2900   1.042       .  S
C2893      C2894   1.400       .  A
C2894      H2898   1.082       .  S
C2901      C2906   1.383       .  A
C2901      C2902   1.405       .  A
C2901      N2907   1.341       .  A
C2902      C2903   1.402       .  A
C2902      H2913   1.082       .  S
C2903      C2912   1.382       .  A
C2903      C2904   1.384       .  A
C2904      C2905   1.402       .  A
C2904      N2910   1.338       .  A
C2905      C2906   1.400       .  A
C2905      H2914   1.082       .  S
C2906      C2909   1.378       .  A
N2907      C2908   1.358       .  A
N2907      H2917   1.043       .  S
C2908      C2909   1.397       .  A
C2909      H2915   1.082       .  S
N2910      C2911   1.355       .  A
N2910      H2918   1.045       .  S
C2911      C2912   1.395       .  A
C2912      H2916   1.082       .  S
C2919      C2924   1.382       .  A
C2919      C2920   1.406       .  A
C2919      N2925   1.347       .  A
C2920      C2921   1.406       .  A
C2920      H2931   1.082       .  S
C2921      C2930   1.381       .  A
C2921      C2922   1.384       .  A
C2922      C2923   1.401       .  A
C2922      N2928   1.343       .  A
C2923      C2924   1.401       .  A
C2923      H2932   1.082       .  S
C2924      C2927   1.373       .  A
N2925      C2926   1.359       .  A
N2925      H2935   1.044       .  S
C2926      C2927   1.398       .  A
C2927      H2933   1.081       .  S
N2928      C2929   1.355       .  A
N2928      H2936   1.045       .  S
C2929      C2930   1.398       .  A
C2930      H2934   1.082       .  S
C2937      C2942   1.386   1_545  A
C2937      C2938   1.401       .  A
C2937      N2943   1.342       .  A
C2938      C2939   1.400       .  A
C2938      H2949   1.082       .  S
C2939      C2948   1.375       .  A
C2939      C2940   1.385   1_545  A
C2940      C2941   1.403       .  A
C2940      N2946   1.343       .  A
C2941      C2942   1.403       .  A
C2941      H2950   1.082       .  S
C2942      C2945   1.377       .  A
N2943      C2944   1.353   1_545  A
N2943      H2953   1.045       .  S
C2944      C2945   1.393       .  A
C2945      H2951   1.083       .  S
N2946      C2947   1.354       .  A
N2946      H2954   1.045       .  S
C2947      C2948   1.392   1_565  A
C2948      H2952   1.082       .  S
C2955      C2960   1.383   1_545  A
C2955      C2956   1.402       .  A
C2955      N2961   1.343       .  A
C2956      C2957   1.402       .  A
C2956      H2967   1.082       .  S
C2957      C2966   1.375       .  A
C2957      C2958   1.384   1_545  A
C2958      C2959   1.406       .  A
C2958      N2964   1.348       .  A
C2959      C2960   1.406       .  A
C2959      H2968   1.082       .  S
C2960      C2963   1.380       .  A
N2961      C2962   1.357       .  A
N2961      H2971   1.044       .  S
C2962      C2963   1.400   1_545  A
C2963      H2969   1.081       .  S
N2964      C2965   1.357       .  A
N2964      H2972   1.045       .  S
C2965      C2966   1.396   1_565  A
C2966      H2970   1.082       .  S
C2973      C2978   1.382       .  A
C2973      C2974   1.402   1_455  A
C2973      N2979   1.339   1_455  A
C2974      C2975   1.400   1_655  A
C2974      H2985   1.083       .  S
C2975      C2984   1.377   1_455  A
C2975      C2976   1.384       .  A
C2976      C2977   1.405       .  A
C2976      N2982   1.343       .  A
C2977      C2978   1.403       .  A
C2977      H2986   1.082       .  S
C2978      C2981   1.380       .  A
N2979      C2980   1.359   1_655  A
N2979      H2989   1.042       .  S
C2980      C2981   1.399       .  A
C2981      H2987   1.082       .  S
N2982      C2983   1.356       .  A
N2982      H2990   1.045       .  S
C2983      C2984   1.394   1_455  A
C2984      H2988   1.082       .  S
C2991      C2996   1.383       .  A
C2991      C2992   1.408       .  A
C2991      N2997   1.348       .  A
C2992      C2993   1.407       .  A
C2992      H3003   1.082       .  S
C2993      C3002   1.383       .  A
C2993      C2994   1.384       .  A
C2994      C2995   1.403       .  A
C2994      N3000   1.344       .  A
C2995      C2996   1.402       .  A
C2995      H3004   1.082       .  S
C2996      C2999   1.376       .  A
N2997      C2998   1.360       .  A
N2997      H3007   1.043       .  S
C2998      C2999   1.397       .  A
C2999      H3005   1.082       .  S
N3000      C3001   1.356       .  A
N3000      H3008   1.045       .  S
C3001      C3002   1.396       .  A
C3002      H3006   1.082       .  S
C3009      C3014   1.382       .  A
C3009      C3010   1.406       .  A
C3009      N3015   1.342       .  A
C3010      C3011   1.403       .  A
C3010      H3021   1.082       .  S
C3011      C3020   1.384       .  A
C3011      C3012   1.384       .  A
C3012      C3013   1.405       .  A
C3012      N3018   1.342       .  A
C3013      C3014   1.402       .  A
C3013      H3022   1.082       .  S
C3014      C3017   1.381       .  A
N3015      C3016   1.359       .  A
N3015      H3025   1.043       .  S
C3016      C3017   1.398       .  A
C3017      H3023   1.082       .  S
N3018      C3019   1.357       .  A
N3018      H3026   1.045       .  S
C3019      C3020   1.397       .  A
C3020      H3024   1.082       .  S
C3027      C3032   1.383       .  A
C3027      C3028   1.401       .  A
C3027      N3033   1.340       .  A
C3028      C3029   1.400       .  A
C3028      H3039   1.082       .  S
C3029      C3038   1.375       .  A
C3029      C3030   1.384       .  A
C3030      C3031   1.406       .  A
C3030      N3036   1.345       .  A
C3031      C3032   1.405       .  A
C3031      H3040   1.082       .  S
C3032      C3035   1.379       .  A
N3033      C3034   1.356       .  A
N3033      H3043   1.043       .  S
C3034      C3035   1.398       .  A
C3035      H3041   1.082       .  S
N3036      C3037   1.358       .  A
N3036      H3044   1.045       .  S
C3037      C3038   1.393       .  A
C3038      H3042   1.082       .  S
C3045      C3050   1.383       .  A
C3045      C3046   1.403       .  A
C3045      N3051   1.345       .  A
C3046      C3047   1.403       .  A
C3046      H3057   1.082       .  S
C3047      C3056   1.375       .  A
C3047      C3048   1.385       .  A
C3048      C3049   1.401       .  A
C3048      N3054   1.344       .  A
C3049      C3050   1.402       .  A
C3049      H3058   1.082       .  S
C3050      C3053   1.373       .  A
N3051      C3052   1.358       .  A
N3051      H3061   1.044       .  S
C3052      C3053   1.399       .  A
C3053      H3059   1.080       .  S
N3054      C3055   1.355       .  A
N3054      H3062   1.045       .  S
C3055      C3056   1.396       .  A
C3056      H3060   1.082       .  S
C3063      C3068   1.382       .  A
C3063      C3064   1.409       .  A
C3063      N3069   1.346       .  A
C3064      C3065   1.408       .  A
C3064      H3075   1.082       .  S
C3065      C3074   1.384       .  A
C3065      C3066   1.382       .  A
C3066      C3067   1.404       .  A
C3066      N3072   1.342       .  A
C3067      C3068   1.402       .  A
C3067      H3076   1.082       .  S
C3068      C3071   1.379       .  A
N3069      C3070   1.359       .  A
N3069      H3079   1.045       .  S
C3070      C3071   1.400       .  A
C3071      H3077   1.081       .  S
N3072      C3073   1.360       .  A
N3072      H3080   1.042       .  S
C3073      C3074   1.402       .  A
C3074      H3078   1.082       .  S
C3081      C3086   1.385   1_554  A
C3081      C3082   1.402       .  A
C3081      N3087   1.343       .  A
C3082      C3083   1.401   1_554  A
C3082      H3093   1.082   1_545  S
C3083      C3092   1.376   1_546  A
C3083      C3084   1.385       .  A
C3084      C3085   1.406       .  A
C3084      N3090   1.347       .  A
C3085      C3086   1.406       .  A
C3085      H3094   1.082       .  S
C3086      C3089   1.380       .  A
N3087      C3088   1.353   1_554  A
N3087      H3097   1.045       .  S
C3088      C3089   1.396       .  A
C3089      H3095   1.083       .  S
N3090      C3091   1.356   1_545  A
N3090      H3098   1.045       .  S
C3091      C3092   1.394   1_556  A
C3092      H3096   1.083       .  S
C3099      C3104   1.382   1_545  A
C3099      C3100   1.407       .  A
C3099      N3105   1.349       .  A
C3100      C3101   1.408       .  A
C3100      H3111   1.082       .  S
C3101      C3110   1.379       .  A
C3101      C3102   1.385   1_545  A
C3102      C3103   1.396       .  A
C3102      N3108   1.341       .  A
C3103      C3104   1.398       .  A
C3103      H3112   1.083       .  S
C3104      C3107   1.366       .  A
N3105      C3106   1.360   1_545  A
N3105      H3115   1.044       .  S
C3106      C3107   1.398       .  A
C3107      H3113   1.080       .  S
N3108      C3109   1.352       .  A
N3108      H3116   1.045       .  S
C3109      C3110   1.398   1_565  A
C3110      H3114   1.082       .  S
C3117      C3122   1.383   1_554  A
C3117      C3118   1.401       .  A
C3117      N3123   1.342       .  A
C3118      C3119   1.401       .  A
C3118      H3129   1.082       .  S
C3119      C3128   1.374       .  A
C3119      C3120   1.385   1_554  A
C3120      C3121   1.400       .  A
C3120      N3126   1.342       .  A
C3121      C3122   1.399       .  A
C3121      H3130   1.082       .  S
C3122      C3125   1.371       .  A
N3123      C3124   1.357   1_554  A
N3123      H3133   1.044       .  S
C3124      C3125   1.396       .  A
C3125      H3131   1.081       .  S
N3126      C3127   1.354   1_556  A
N3126      H3134   1.045       .  S
C3127      C3128   1.395       .  A
C3128      H3132   1.082       .  S
C3135      C3140   1.383       .  A
C3135      C3136   1.401       .  A
C3135      N3141   1.343       .  A
C3136      C3137   1.401       .  A
C3136      H3147   1.082       .  S
C3137      C3146   1.374       .  A
C3137      C3138   1.381       .  A
C3138      C3139   1.409       .  A
C3138      N3144   1.348       .  A
C3139      C3140   1.409       .  A
C3139      H3148   1.082       .  S
C3140      C3143   1.382       .  A
N3141      C3142   1.357       .  A
N3141      H3151   1.042       .  S
C3142      C3143   1.402       .  A
C3143      H3149   1.082       .  S
N3144      C3145   1.360       .  A
N3144      H3152   1.044       .  S
C3145      C3146   1.400       .  A
C3146      H3150   1.080       .  S
