geometry optimzed in LAMMPS
_audit_creation_date              2020-11-30 
_audit_creation_method            'lammps2cif' 
_symmetry_space_group_name_H-M    'P1' 
_symmetry_Int_Tables_number       1 
_symmetry_cell_setting            triclinic 
loop_ 
_symmetry_equiv_pos_as_xyz 
  x,y,z 
_cell_length_a                    41.385573438161565 
_cell_length_b                    41.698683043380825 
_cell_length_c                    41.47554758298434 
_cell_angle_alpha                 90.31822362096386 
_cell_angle_beta                  89.49107007093662 
_cell_angle_gamma                 90.08486298963702 
loop_ 
_atom_site_label 
_atom_site_type_symbol 
_atom_site_fract_x 
_atom_site_fract_y 
_atom_site_fract_z 
_atom_site_charge 
Fe1        Fe  0.08874796  0.66500681  0.39767660     1.65780
Fe2        Fe  0.16620426  0.67955532  0.37870553     1.73250
Fe3        Fe  0.13367089  0.71470338  0.44497695     1.54420
O4          O  0.08477038  0.72900301  0.44762373    -0.82510
O5          O  0.19100260  0.66166448  0.41628432    -0.80810
O6          O  0.06251834  0.70405280  0.40643948    -0.85010
O7          O  0.08635445  0.64805554  0.44667542    -0.79870
O8          O  0.14976437  0.75330722  0.41705302    -0.81640
O9          O  0.15613740  0.63196389  0.36662368    -0.84390
C10         C  0.10131784  0.65531319  0.47289151     0.96380
C11         C  0.06004612  0.71924853  0.43230256     1.03820
O12         O  0.12916100  0.68648150  0.40709628    -1.13370
O13         O  0.14127663  0.69855455  0.34095945    -0.75800
O14         O  0.08999483  0.68350266  0.34935262    -0.79290
O15         O  0.12086162  0.67852280  0.47489309    -0.79980
C16         C  0.11166492  0.69915311  0.33323060     0.95280
O17         O  0.10814032  0.62135049  0.38751863    -0.77930
O18         O  0.18464284  0.72501335  0.38701369    -0.83130
C19         C  0.19569666  0.67547475  0.44303550     0.97910
C20         C  0.17513945  0.75136757  0.39927944     1.03820
O21         O  0.18109888  0.70099059  0.45147318    -0.78770
C22         C  0.13441342  0.61231611  0.37533095     1.02120
Fe23       Fe  0.41125383  0.66240186  0.55129141     1.65780
Fe24       Fe  0.33597380  0.67318547  0.57992902     1.73250
Fe25       Fe  0.35992469  0.71257212  0.51290716     1.54410
O26         O  0.40511665  0.73548988  0.51232431    -0.82510
O27         O  0.30967113  0.65165152  0.54494280    -0.80810
O28         O  0.43643482  0.70234481  0.54046735    -0.85010
O29         O  0.41272812  0.64845737  0.50238199    -0.79870
O30         O  0.33928111  0.74744176  0.54280096    -0.81640
O31         O  0.35254843  0.62807854  0.59332598    -0.84390
C32         C  0.39819954  0.65938406  0.47770875     0.96380
C33         C  0.43265338  0.72582489  0.52185667     1.03820
O34         O  0.36959322  0.68321012  0.54789682    -1.13370
O35         O  0.36313971  0.69550987  0.61401569    -0.75800
O36         O  0.41307631  0.67837286  0.60035546    -0.79290
O37         O  0.37763667  0.68171623  0.47932136    -0.79980
C38         C  0.39350380  0.69482564  0.61832105     0.95280
O39         O  0.39165829  0.61764094  0.55899543    -0.77930
O40         O  0.30995986  0.71520854  0.57313585    -0.83130
C41         C  0.30240113  0.66465806  0.51843268     0.97910
C42         C  0.31428011  0.74227707  0.56010898     1.03820
O43         O  0.31579251  0.68999154  0.50739833    -0.78770
C44         C  0.36956359  0.60814125  0.57762307     1.02120
Fe45       Fe  0.18888288  0.90902394  0.56434979     1.65780
Fe46       Fe  0.20090991  0.88678162  0.64093983     1.73250
Fe47       Fe  0.23754686  0.95286201  0.61270067     1.54410
O48         O  0.25308012  0.95794372  0.56439567    -0.82510
O49         O  0.18069550  0.92440511  0.66591801    -0.80810
O50         O  0.23025033  0.91673656  0.53965077    -0.85010
O51         O  0.17444769  0.95778594  0.56149504    -0.79870
O52         O  0.27607058  0.92426407  0.62753207    -0.81640
O53         O  0.15412461  0.87348583  0.62770459    -0.84390
C54         C  0.17898261  0.98210178  0.58003059     0.96380
C55         C  0.24595630  0.94250504  0.53886824     1.03820
O56         O  0.20961445  0.91584338  0.60534916    -1.13370
O57         O  0.22148065  0.85009805  0.61496782    -0.75800
O58         O  0.20409405  0.86030308  0.56478472    -0.79290
O59         O  0.20007092  0.98261340  0.60197726    -0.79980
C60         C  0.22055202  0.84374350  0.58495852     0.95280
O61         O  0.14402152  0.90183079  0.58420308    -0.77930
O62         O  0.24596238  0.89524155  0.66158406    -0.83130
C63         C  0.19580810  0.95025011  0.67179833     0.97910
C64         C  0.27295799  0.90746569  0.65318031     1.03820
O65         O  0.22362411  0.95555293  0.66016315    -0.78770
C66         C  0.13446967  0.88589774  0.60811486     1.02120
Fe67       Fe  0.17711239  0.06480201  0.88811675     1.65780
Fe68       Fe  0.18651469  0.08739014  0.81214659     1.73250
Fe69       Fe  0.22304592  0.02021033  0.83721173     1.54410
O70         O  0.24055990  0.01636820  0.88564263    -0.82510
O71         O  0.16414711  0.05245676  0.78660662    -0.80810
O72         O  0.22164242  0.06102895  0.90576742    -0.85010
O73         O  0.16524823  0.01475237  0.89348484    -0.79870
O74         O  0.26102733  0.04869691  0.81879903    -0.81640
O75         O  0.14161714  0.10139598  0.83005768    -0.84390
C76         C  0.16950555  0.98971092  0.87567709     0.96380
C77         C  0.23303442  0.03383171  0.91004634     1.03820
O78         O  0.19511307  0.05696936  0.84586883    -1.13370
O79         O  0.21081140  0.12121139  0.83752794    -0.75800
O80         O  0.19056894  0.11421342  0.88672787    -0.79290
O81         O  0.18757107  0.98963337  0.85097812    -0.79980
C82         C  0.21085886  0.12772957  0.86740818     0.95280
O83         O  0.13075711  0.06940589  0.87093241    -0.77930
O84         O  0.22932504  0.07790771  0.78780363    -0.83130
C85         C  0.17905257  0.02753349  0.77741618     0.97910
C86         C  0.25674597  0.06552241  0.79339567     1.03820
O87         O  0.20435233  0.01669760  0.79103162    -0.78770
C88         C  0.12162877  0.08548683  0.84697499     1.02120
Fe89       Fe  0.41417755  0.07450764  0.65252571     1.65780
Fe90       Fe  0.39473468  0.14950879  0.67321915     1.73250
Fe91       Fe  0.45718656  0.11270797  0.71061303     1.54420
O92         O  0.44846658  0.06670827  0.72979563    -0.82510
O93         O  0.43438477  0.17338898  0.65677574    -0.80810
O94         O  0.42940360  0.04466246  0.68536855    -0.85010
O95         O  0.46091783  0.07705609  0.63336579    -0.79870
O96         O  0.43103375  0.13542429  0.74788373    -0.81640
O97         O  0.38209887  0.14303306  0.62535856    -0.84390
C98         C  0.48726673  0.08412191  0.64762880     0.96380
C99         C  0.44050321  0.04226926  0.71308369     1.03820
O100        O  0.42196292  0.11205398  0.67906523    -1.13370
O101        O  0.35650411  0.12287553  0.69101791    -0.75800
O102        O  0.36791156  0.07213539  0.67484835    -0.79290
O103        O  0.48859489  0.09338583  0.67685716    -0.79980
C104        C  0.35108911  0.09261784  0.69129040     0.95280
O105        O  0.40006156  0.09577559  0.61116167    -0.77930
O106        O  0.40290212  0.16885349  0.71816704    -0.83130
C107        C  0.46204639  0.17468963  0.66992895     0.97910
C108        C  0.41658848  0.16215270  0.74434667     1.03820
O109        O  0.47047114  0.15684661  0.69318186    -0.78770
C110        C  0.38886853  0.12250993  0.60389558     1.02120
Fe111      Fe  0.56735813  0.39516309  0.65718310     1.65780
Fe112      Fe  0.59806912  0.32145039  0.67240073     1.73250
Fe113      Fe  0.52907449  0.34641781  0.71062903     1.54410
O114        O  0.53154051  0.39106410  0.73412512    -0.82510
O115        O  0.56438531  0.28973280  0.65781672    -0.80810
O116        O  0.54598026  0.42088393  0.69235745    -0.85010
O117        O  0.52103227  0.38851164  0.63675966    -0.79870
O118        O  0.55583641  0.32440086  0.74656579    -0.81640
O119        O  0.60532357  0.33038140  0.62399461    -0.84390
C120        C  0.49570393  0.37790090  0.65127539     0.96380
C121        C  0.53376658  0.41802056  0.71996572     1.03820
O122        O  0.56483374  0.35426691  0.68017783    -1.13370
O123        O  0.63279390  0.35285711  0.68810037    -0.75800
O124        O  0.61248100  0.40245103  0.68077722    -0.79290
O125        O  0.49721582  0.36496314  0.67879397    -0.79980
C126        C  0.63344960  0.38307044  0.69275526     0.95280
O127        O  0.58653254  0.37863492  0.61420898    -0.77930
O128        O  0.59527366  0.30209001  0.71789636    -0.83130
C129        C  0.53597346  0.28499117  0.66818939     0.97910
C130        C  0.57833417  0.30392065  0.74342620     1.03820
O131        O  0.52146880  0.30257918  0.68889558    -0.78770
C132        C  0.59794145  0.35231106  0.60463944     1.02120
Fe133      Fe  0.58748405  0.17143873  0.90073384     1.65780
Fe134      Fe  0.66382131  0.18102391  0.87756610     1.73250
Fe135      Fe  0.63890400  0.21534162  0.94580159     1.54420
O136        O  0.59080491  0.23313376  0.95167602    -0.82510
O137        O  0.68793734  0.15659606  0.91179560    -0.80810
O138        O  0.56851841  0.21541339  0.90715881    -0.85010
O139        O  0.58185009  0.15879527  0.95085810    -0.79870
O140        O  0.65627641  0.25376653  0.91855112    -0.81640
O141        O  0.64512830  0.13750033  0.86122800    -0.84390
C142        C  0.60020071  0.16260620  0.97553007     0.96380
C143        C  0.56575574  0.22717984  0.93488669     1.03820
O144        O  0.62969145  0.18925283  0.90817912    -1.13370
O145        O  0.63908168  0.20613947  0.84477482    -0.75800
O146        O  0.58953714  0.18582183  0.85103045    -0.79290
O147        O  0.62606609  0.17859197  0.97437588    -0.79980
C148        C  0.60985326  0.20439624  0.83640357     0.95280
O149        O  0.60497784  0.12536658  0.89394144    -0.77930
O150        O  0.68877445  0.22311807  0.88893097    -0.83130
C151        C  0.69632900  0.16980369  0.93792765     0.97910
C152        C  0.68242101  0.25002623  0.90230836     1.03820
O153        O  0.68519963  0.19671310  0.94769655    -0.78770
C154        C  0.62775325  0.11664019  0.87545182     1.02120
Fe155      Fe  0.90915818  0.16873582  0.04832132     1.65780
Fe156      Fe  0.83446763  0.17470352  0.07740836     1.73250
Fe157      Fe  0.85477291  0.21396552  0.01049650     1.54410
O158        O  0.90254149  0.23147499  0.00144682    -0.82510
O159        O  0.80755873  0.15335551  0.04289393    -0.80810
O160        O  0.92437519  0.21433554  0.04555112    -0.85010
O161        O  0.91101794  0.16045039  0.99706310    -0.79870
O162        O  0.84208094  0.24974194  0.04261597    -0.81640
O163        O  0.85402817  0.12965506  0.08710157    -0.84390
C164        C  0.89054195  0.16484924  0.97430332     0.96380
C165        C  0.92758453  0.22566662  0.01797989     1.03820
O166        O  0.86619996  0.18514296  0.04511088    -1.13370
O167        O  0.86161068  0.19709876  0.11108332    -0.75800
O168        O  0.91088667  0.17868235  0.09861373    -0.79290
O169        O  0.86413253  0.17919607  0.97864440    -0.79980
C170        C  0.89170833  0.19582501  0.11611524     0.95280
O171        O  0.89390876  0.12169545  0.05214668    -0.77930
O172        O  0.80972543  0.21790083  0.07138002    -0.83130
C173        C  0.79757822  0.16861733  0.01871326     0.97910
C174        C  0.81673723  0.24531347  0.05969632     1.03820
O175        O  0.80784909  0.19646153  0.01114289    -0.78770
C176        C  0.87198147  0.11082438  0.07051206     1.02120
Fe177      Fe  0.68514187  0.39970884  0.06457267     1.65780
Fe178      Fe  0.69373494  0.37965199  0.14067839     1.73250
Fe179      Fe  0.72704725  0.44764723  0.11455670     1.54410
O180        O  0.74625902  0.45070227  0.06659241    -0.82510
O181        O  0.66718487  0.41369681  0.16371195    -0.80810
O182        O  0.73098792  0.40380556  0.04945614    -0.85010
O183        O  0.67323178  0.44896963  0.05588514    -0.79870
O184        O  0.76531066  0.42117844  0.13372681    -0.81640
O185        O  0.65185709  0.36149361  0.11990987    -0.84390
C186        C  0.67537557  0.47453997  0.07311597     0.96380
C187        C  0.73979609  0.43164087  0.04330313     1.03820
O188        O  0.70126275  0.40969111  0.10662321    -1.13370
O189        O  0.72184570  0.34766755  0.11656253    -0.75800
O190        O  0.69701196  0.35069423  0.06916867    -0.79290
O191        O  0.69086533  0.47573615  0.09914132    -0.79980
C192        C  0.71879419  0.33900044  0.08744106     0.95280
O193        O  0.63873268  0.39471419  0.08095070    -0.77930
O194        O  0.73407914  0.39319948  0.16707785    -0.83130
C195        C  0.67913266  0.44064673  0.17153623     0.97910
C196        C  0.76119474  0.40586398  0.16009230     1.03820
O197        O  0.70565855  0.45163769  0.15990291    -0.78770
C198        C  0.63072480  0.37641800  0.10378126     1.02120
Fe199      Fe  0.68343052  0.56029849  0.38158728     1.65780
Fe200      Fe  0.69348568  0.58073189  0.30572107     1.73250
Fe201      Fe  0.73238169  0.51584863  0.33259895     1.54410
O202        O  0.75147831  0.51517796  0.37966855    -0.82510
O203        O  0.67119090  0.54353734  0.28303366    -0.80810
O204        O  0.72905680  0.55912017  0.39742845    -0.85010
O205        O  0.67375120  0.51064943  0.38943866    -0.79870
O206        O  0.76867087  0.54491955  0.31303534    -0.81640
O207        O  0.64871462  0.59538957  0.32447996    -0.84390
C208        C  0.68010474  0.48511270  0.37320690     0.96380
C209        C  0.74157442  0.53256518  0.40299545     1.03820
O210        O  0.70258625  0.55159011  0.34007003    -1.13370
O211        O  0.71776935  0.61591893  0.33023778    -0.75800
O212        O  0.69322788  0.60984572  0.37796217    -0.79290
O213        O  0.69912807  0.48464791  0.34927840    -0.79980
C214        C  0.71425295  0.62351492  0.35974486     0.95280
O215        O  0.63663459  0.56265828  0.36417390    -0.77930
O216        O  0.73589654  0.57102776  0.28033051    -0.83130
C217        C  0.68476103  0.51690996  0.27656106     0.97910
C218        C  0.76392455  0.56112646  0.28750942     1.03820
O219        O  0.71238031  0.50896899  0.28746285    -0.78770
C220        C  0.62785271  0.57975492  0.34069278     1.02120
Fe221      Fe  0.92719163  0.57420850  0.15277244     1.65780
Fe222      Fe  0.90416902  0.64883131  0.17263888     1.73250
Fe223      Fe  0.96710390  0.61637563  0.21085184     1.54420
O224        O  0.96414380  0.56972393  0.22836153    -0.82510
O225        O  0.94265745  0.67492305  0.15626022    -0.80810
O226        O  0.94440701  0.54433340  0.18583661    -0.85010
O227        O  0.97441202  0.57887288  0.13393430    -0.79870
O228        O  0.93782938  0.63454578  0.24843408    -0.81640
O229        O  0.89192397  0.64087005  0.12578781    -0.84390
C230        C  0.00008473  0.58952399  0.14745241     0.96380
C231        C  0.95865117  0.54429633  0.21233318     1.03820
O232        O  0.93269207  0.61260951  0.17899067    -1.13370
O233        O  0.86724411  0.62066049  0.18966824    -0.75800
O234        O  0.88033954  0.57015175  0.17454093    -0.79290
O235        O  0.99980731  0.60133104  0.17595323    -0.79980
C236        C  0.86231965  0.59035192  0.19020372     0.95280
O237        O  0.91176498  0.59474076  0.11094647    -0.77930
O238        O  0.91031061  0.66767737  0.21770342    -0.83130
C239        C  0.96897739  0.67836052  0.17148055     0.97910
C240        C  0.92061433  0.65962969  0.24499052     1.03820
O241        O  0.97559903  0.66240806  0.19643261    -0.78770
C242        C  0.89855407  0.62081721  0.10414390     1.02120
Fe243      Fe  0.06912275  0.89384430  0.15297942     1.65780
Fe244      Fe  0.10514219  0.82318096  0.16791614     1.73250
Fe245      Fe  0.03611833  0.84284570  0.20749734     1.54420
O246        O  0.03532784  0.88791183  0.23087682    -0.82510
O247        O  0.07293678  0.79292995  0.14760564    -0.80810
O248        O  0.05051673  0.91889950  0.18995793    -0.85010
O249        O  0.02180427  0.88638697  0.13612117    -0.79870
O250        O  0.06584431  0.82322005  0.24275573    -0.81640
O251        O  0.11850289  0.83814792  0.12167625    -0.84390
C252        C  0.99800950  0.87333092  0.15096096     0.96380
C253        C  0.03807907  0.91529068  0.21741325     1.03820
O254        O  0.07003711  0.85358818  0.17639780    -1.13370
O255        O  0.13557052  0.85515780  0.18908428    -0.75800
O256        O  0.11586882  0.90295564  0.17260044    -0.79290
O257        O  0.00151760  0.85854450  0.17722663    -0.79980
C258        C  0.13595019  0.88573714  0.18876466     0.95280
O259        O  0.08433989  0.87586086  0.10931737    -0.77930
O260        O  0.10012033  0.79762393  0.21101531    -0.83130
C261        C  0.04616435  0.78485603  0.16028424     0.97910
C262        C  0.08531973  0.80014534  0.23785318     1.03820
O263        O  0.03271841  0.79891005  0.18440032    -0.78770
C264        C  0.10478536  0.85530800  0.10076419     1.02120
Fe265      Fe  0.30802570  0.90504834  0.38189676     1.65780
Fe266      Fe  0.29915062  0.88542939  0.30480053     1.73250
Fe267      Fe  0.26447086  0.95266230  0.33265811     1.54420
O268        O  0.24671985  0.95746848  0.38077682    -0.82510
O269        O  0.32316047  0.92135429  0.28131044    -0.80810
O270        O  0.26330708  0.91178401  0.39995875    -0.85010
O271        O  0.32365915  0.95369317  0.38768865    -0.79870
O272        O  0.22549857  0.92633545  0.31457312    -0.81640
O273        O  0.34379820  0.86967517  0.32108626    -0.84390
C274        C  0.32155487  0.97845647  0.36946733     0.96380
C275        C  0.25266011  0.93942162  0.40465102     1.03820
O276        O  0.29085234  0.91454246  0.34003156    -1.13370
O277        O  0.27394238  0.85077540  0.32894948    -0.75800
O278        O  0.29189209  0.85673600  0.37904193    -0.79290
O279        O  0.30194700  0.98026795  0.34635096    -0.79980
C280        C  0.27279972  0.84349088  0.35857689     0.95280
O281        O  0.35458207  0.89701157  0.36531055    -0.77930
O282        O  0.25643575  0.89716107  0.28179100    -0.83130
C283        C  0.30991934  0.94785432  0.27458331     0.97910
C284        C  0.22949713  0.91061833  0.28823815     1.03820
O285        O  0.28262742  0.95627140  0.28627661    -0.78770
C286        C  0.36397048  0.88089226  0.34110050     1.02120
Fe287      Fe  0.31968423  0.05633786  0.06686071     1.65780
Fe288      Fe  0.30196786  0.08978483  0.13790345     1.73250
Fe289      Fe  0.26465087  0.02109981  0.11638895     1.54410
O290        O  0.24317872  0.02030141  0.06992469    -0.82510
O291        O  0.32422345  0.05735185  0.16665444    -0.80810
O292        O  0.28350932  0.04017095  0.04008137    -0.85010
O293        O  0.33606019  0.00869499  0.07178294    -0.79870
O294        O  0.22845725  0.04987703  0.13667895    -0.81640
O295        O  0.34690618  0.10625600  0.12158124    -0.84390
C296        C  0.32143015  0.98470500  0.08436461     0.96380
C297        C  0.25711849  0.02557081  0.04264526     1.03820
O298        O  0.29501897  0.05542557  0.10662606    -1.13370
O299        O  0.27769668  0.11899654  0.10704202    -0.75800
O300        O  0.30026050  0.10356692  0.05963254    -0.79290
O301        O  0.29558828  0.98732220  0.10039670    -0.79980
C302        C  0.27963105  0.12025021  0.07635583     0.95280
O303        O  0.36234903  0.06901407  0.08788797    -0.77930
O304        O  0.26023424  0.08185642  0.16420604    -0.83130
C305        C  0.31216156  0.03024336  0.17424441     0.97910
C306        C  0.23336681  0.06782967  0.16099031     1.03820
O307        O  0.28733258  0.01753898  0.16086328    -0.78770
C308        C  0.36925103  0.09079304  0.10751625     1.02120
Fe309      Fe  0.41039613  0.29639153  0.90437163     1.65780
Fe310      Fe  0.33606774  0.28358082  0.87725382     1.73250
Fe311      Fe  0.35798352  0.24981701  0.94670116     1.54410
O312        O  0.40549870  0.23099702  0.95152001    -0.82510
O313        O  0.30929017  0.30744451  0.91054505    -0.80810
O314        O  0.43318380  0.25445215  0.91187103    -0.85010
O315        O  0.41367565  0.30932137  0.95375349    -0.79870
O316        O  0.34025953  0.21160427  0.91924980    -0.81640
O317        O  0.35461941  0.32775126  0.86204965    -0.84390
C318        C  0.39545446  0.30342424  0.97810415     0.96380
C319        C  0.43216655  0.23820610  0.93736782     1.03820
O320        O  0.36860908  0.27606771  0.90964912    -1.13370
O321        O  0.36380371  0.25817464  0.84567279    -0.75800
O322        O  0.41146166  0.28183508  0.85485842    -0.79290
O323        O  0.37126475  0.28512792  0.97677023    -0.79980
C324        C  0.39393192  0.26060266  0.84054330     0.95280
O325        O  0.38997550  0.34132813  0.89848676    -0.77930
O326        O  0.31052856  0.24160166  0.88683830    -0.83130
C327        C  0.30015790  0.29545260  0.93705199     0.97910
C328        C  0.31611623  0.21508899  0.90065239     1.03820
O329        O  0.31209341  0.26988703  0.94890652    -0.78770
C330        C  0.36751863  0.34907668  0.87971748     1.02120
Fe331      Fe  0.08390332  0.29064347  0.04706712     1.65780
Fe332      Fe  0.15981585  0.27867184  0.06870463     1.73250
Fe333      Fe  0.13343502  0.24388532  0.00114590     1.54420
O334        O  0.08683977  0.22341623  0.00000711    -0.82510
O335        O  0.18262898  0.30407210  0.03369310    -0.80810
O336        O  0.06043519  0.24868992  0.03978611    -0.85010
O337        O  0.07756389  0.30424439  0.99856926    -0.79870
O338        O  0.15413212  0.20687210  0.02785903    -0.81640
O339        O  0.14087500  0.32143543  0.08709428    -0.84390
C340        C  0.09306126  0.29738177  0.97264674     0.96380
C341        C  0.06074535  0.23160009  0.01456798     1.03820
O342        O  0.12509780  0.27049086  0.03870461    -1.13370
O343        O  0.13493569  0.25209091  0.10176153    -0.75800
O344        O  0.08658317  0.27575796  0.09631512    -0.79290
O345        O  0.11599912  0.27752207  0.97140291    -0.79980
C346        C  0.10532215  0.25504874  0.10962993     0.95280
O347        O  0.10456509  0.33568034  0.05245399    -0.77930
O348        O  0.18680881  0.23832019  0.05574907    -0.83130
C349        C  0.18955259  0.29253144  0.00609772     0.97910
C350        C  0.18069662  0.21148310  0.04255861     1.03820
O351        O  0.17808589  0.26602517  0.99548045    -0.78770
C352        C  0.12738995  0.34322985  0.07091120     1.02120
Fe353      Fe  0.91729986  0.39096839  0.29066598     1.65780
Fe354      Fe  0.89223134  0.31698004  0.27900916     1.73250
Fe355      Fe  0.95956456  0.34122444  0.24113801     1.54420
O356        O  0.96289824  0.38891757  0.22338418    -0.82510
O357        O  0.92760659  0.29192561  0.30124460    -0.80810
O358        O  0.91998601  0.40956737  0.24649240    -0.85010
O359        O  0.96785645  0.39588778  0.30032549    -0.79870
O360        O  0.93018020  0.32327428  0.20447012    -0.81640
O361        O  0.87756200  0.33554684  0.32371316    -0.84390
C362        C  0.99262685  0.37873522  0.29322765     0.96380
C363        C  0.94694866  0.41325301  0.23346557     1.03820
O364        O  0.92366723  0.34981781  0.27060097    -1.13370
O365        O  0.85926142  0.34356915  0.25453646    -0.75800
O366        O  0.86710007  0.38988588  0.28055183    -0.79290
O367        O  0.99136868  0.35495006  0.27445506    -0.79980
C368        C  0.85319897  0.37315457  0.25854426     0.95280
O369        O  0.91354669  0.37230639  0.33625595    -0.77930
O370        O  0.90195369  0.29184902  0.23686361    -0.83130
C371        C  0.95393057  0.28401916  0.28741998     0.97910
C372        C  0.91444022  0.29738292  0.20936459     1.03820
O373        O  0.96374062  0.29575186  0.26064003    -0.78770
C374        C  0.89426339  0.35035383  0.34461691     1.02120
Fe375      Fe  0.07475254  0.07083446  0.29167924     1.65780
Fe376      Fe  0.09491790  0.14765189  0.28320754     1.73250
Fe377      Fe  0.03185194  0.11823000  0.24187298     1.54410
O378        O  0.02975076  0.06963177  0.22512534    -0.82510
O379        O  0.05623647  0.17137402  0.30181692    -0.80810
O380        O  0.07406095  0.05358956  0.24667289    -0.85010
O381        O  0.02377240  0.06456494  0.30160924    -0.79870
O382        O  0.06294673  0.13597152  0.20615399    -0.81640
O383        O  0.10461755  0.13264345  0.33023759    -0.84390
C384        C  0.99865457  0.08139671  0.29478038     0.96380
C385        C  0.04731219  0.04682465  0.23527347     1.03820
O386        O  0.06673952  0.11223802  0.27296356    -1.13370
O387        O  0.13291826  0.12333764  0.26310269    -0.75800
O388        O  0.12483929  0.07363833  0.28143955    -0.79290
O389        O  0.99964926  0.10435153  0.27513531    -0.79980
C390        C  0.14066548  0.09392875  0.26429837     0.95280
O391        O  0.07747178  0.08740925  0.33820097    -0.77930
O392        O  0.08844780  0.16985932  0.23870033    -0.83130
C393        C  0.03088617  0.17751865  0.28611874     0.97910
C394        C  0.07774194  0.16255398  0.21092487     1.03820
O395        O  0.02443074  0.16457104  0.25896565    -0.78770
C396        C  0.09137446  0.11220540  0.34884446     1.02120
Fe397      Fe  0.81124638  0.55379951  0.56294960     1.65780
Fe398      Fe  0.79306085  0.58089091  0.63763483     1.73250
Fe399      Fe  0.75124646  0.51829796  0.60507008     1.54420
O400        O  0.73110019  0.52572815  0.56017487    -0.82510
O401        O  0.80203604  0.54375279  0.66857593    -0.80810
O402        O  0.77741689  0.53399359  0.53485474    -0.85010
O403        O  0.82916443  0.50737261  0.57084891    -0.79870
O404        O  0.71616753  0.54668965  0.62784434    -0.81640
O405        O  0.84199499  0.58395667  0.63110796    -0.84390
C406        C  0.81198729  0.48254605  0.57739348     0.96380
C407        C  0.74844645  0.52510576  0.53486665     1.03820
O408        O  0.78498739  0.55117355  0.60205634    -1.13370
O409        O  0.78254896  0.61831844  0.60680408    -0.75800
O410        O  0.78967268  0.59921127  0.55609917    -0.79290
O411        O  0.78237727  0.48449363  0.58573013    -0.79980
C412        C  0.77848309  0.62010749  0.57630657     0.95280
O413        O  0.85387484  0.57184499  0.58114526    -0.77930
O414        O  0.74649816  0.58193135  0.65408454    -0.83130
C415        C  0.78837191  0.51642549  0.66942632     0.97910
C416        C  0.71986121  0.56792863  0.64965153     1.03820
O417        O  0.76898666  0.50656707  0.64826717    -0.78770
C418        C  0.86260145  0.57983841  0.60895572     1.02120
Fe419      Fe  0.81661064  0.41258274  0.88523229     1.65780
Fe420      Fe  0.79868503  0.37880318  0.81350461     1.73250
Fe421      Fe  0.75942845  0.44566761  0.83814127     1.54420
O422        O  0.73880945  0.44582428  0.88448322    -0.82510
O423        O  0.81702802  0.41217849  0.78298978    -0.80810
O424        O  0.78142962  0.43112925  0.91288919    -0.85010
O425        O  0.83353266  0.45977936  0.87733248    -0.79870
O426        O  0.72338460  0.41537260  0.82084529    -0.81640
O427        O  0.84580078  0.36606500  0.82500464    -0.84390
C428        C  0.81794289  0.48351672  0.86557379     0.96380
C429        C  0.75381579  0.44325479  0.91102030     1.03820
O430        O  0.79149916  0.41242794  0.84594215    -1.13370
O431        O  0.77953388  0.34693104  0.84562507    -0.75800
O432        O  0.79649012  0.36602792  0.89393754    -0.79290
O433        O  0.79084800  0.48022049  0.85217558    -0.79980
C434        C  0.78038342  0.34594006  0.87636531     0.95280
O435        O  0.85925696  0.39699958  0.86538148    -0.77930
O436        O  0.75418268  0.38428960  0.79075809    -0.83130
C437        C  0.80212501  0.43774569  0.77606985     0.97910
C438        C  0.72733316  0.39821072  0.79576533     1.03820
O439        O  0.77895137  0.44982130  0.79263668    -0.78770
C440        C  0.86711021  0.37811933  0.84298680     1.02120
Fe441      Fe  0.57395652  0.57143046  0.79121153     1.65780
Fe442      Fe  0.59342743  0.64854113  0.78564247     1.73250
Fe443      Fe  0.52902324  0.62057208  0.74502166     1.54420
O444        O  0.52629927  0.57266016  0.72628999    -0.82510
O445        O  0.55544578  0.67113690  0.80639625    -0.80810
O446        O  0.57138932  0.55636833  0.74559189    -0.85010
O447        O  0.52331835  0.56438500  0.80299243    -0.79870
O448        O  0.55898869  0.64039174  0.70889514    -0.81640
O449        O  0.60536867  0.63148099  0.83159414    -0.84390
C450        C  0.49762728  0.58089676  0.79745714     0.96380
C451        C  0.54414504  0.54968266  0.73548106     1.03820
O452        O  0.56490245  0.61352831  0.77483893    -1.13370
O453        O  0.63029893  0.62558439  0.76263196    -0.75800
O454        O  0.62345693  0.57519114  0.77848137    -0.79290
O455        O  0.49771166  0.60478846  0.77882746    -0.79980
C456        C  0.63702749  0.59600735  0.76012361     0.95280
O457        O  0.57891477  0.58568509  0.83841304    -0.77930
O458        O  0.58540236  0.67257861  0.74243878    -0.83130
C459        C  0.52961045  0.67774566  0.79172753     0.97910
C460        C  0.57491797  0.66627624  0.71428137     1.03820
O461        O  0.52231254  0.66596750  0.76428682    -0.78770
C462        C  0.59362967  0.60973962  0.84969672     1.02120
Fe463      Fe  0.42245425  0.89107262  0.79640279     1.65780
Fe464      Fe  0.39309462  0.81684575  0.78411576     1.73250
Fe465      Fe  0.45966435  0.84078715  0.74375508     1.54420
O466        O  0.45635322  0.88424260  0.71887600    -0.82510
O467        O  0.42772247  0.79108673  0.80581092    -0.80810
O468        O  0.43750794  0.91555494  0.75832888    -0.85010
O469        O  0.47062465  0.88932634  0.81274606    -0.79870
O470        O  0.43057615  0.81900096  0.70974437    -0.81640
O471        O  0.37832900  0.83335755  0.82951804    -0.84390
C472        C  0.49530487  0.87708747  0.79852375     0.96380
C473        C  0.44955127  0.91163217  0.73079756     1.03820
O474        O  0.42536191  0.84984593  0.77473486    -1.13370
O475        O  0.36059175  0.84452298  0.76073699    -0.75800
O476        O  0.37478290  0.89451714  0.77629019    -0.79290
O477        O  0.49283764  0.86052453  0.77306742    -0.79980
C478        C  0.35826657  0.87491339  0.75845898     0.95280
O479        O  0.41023932  0.87348563  0.84082776    -0.77930
O480        O  0.40088268  0.78962621  0.74217830    -0.83130
C481        C  0.45512544  0.78457407  0.79347977     0.97910
C482        C  0.41410732  0.79397236  0.71483292     1.03820
O483        O  0.46700839  0.79798172  0.76825445    -0.78770
C484        C  0.39165909  0.85154086  0.84999625     1.02120
Fe485      Fe  0.58615953  0.79628039  0.55429440     1.65780
Fe486      Fe  0.66206039  0.78799473  0.57815663     1.73250
Fe487      Fe  0.63749388  0.75068164  0.51027844     1.54420
O488        O  0.58916000  0.73340731  0.50483626    -0.82510
O489        O  0.68808371  0.80883925  0.54258819    -0.80810
O490        O  0.57022084  0.75109560  0.55046485    -0.85010
O491        O  0.58178984  0.80746518  0.50375928    -0.79870
O492        O  0.65376831  0.71339143  0.53929298    -0.81640
O493        O  0.64550155  0.83452336  0.58978265    -0.84390
C494        C  0.60039373  0.80340465  0.47896307     0.96380
C495        C  0.56514244  0.74033160  0.52293275     1.03820
O496        O  0.62861439  0.77895261  0.54723333    -1.13370
O497        O  0.63571737  0.76566119  0.61352849    -0.75800
O498        O  0.58613573  0.78411911  0.60404640    -0.79290
O499        O  0.62532943  0.78600596  0.47956336    -0.79980
C500        C  0.60571677  0.76651438  0.62003751     0.95280
O501        O  0.60243738  0.84285336  0.55947451    -0.77930
O502        O  0.68531825  0.74414419  0.56953130    -0.83130
C503        C  0.69592417  0.79490706  0.51655076     0.97910
C504        C  0.67928373  0.71716880  0.55609592     1.03820
O505        O  0.68412850  0.76813714  0.50746625    -0.78770
C506        C  0.62623920  0.85337863  0.57531982     1.02120
Fe507      Fe  0.90628709  0.79517538  0.39872337     1.65780
Fe508      Fe  0.83144363  0.78781297  0.37266051     1.73250
Fe509      Fe  0.85288155  0.75053819  0.44052024     1.54410
O510        O  0.90097180  0.73300350  0.44727239    -0.82510
O511        O  0.80520092  0.81046650  0.40738174    -0.80810
O512        O  0.92229982  0.75061267  0.40270792    -0.85010
O513        O  0.90825068  0.80684573  0.44926461    -0.79870
O514        O  0.83723720  0.71352472  0.41008179    -0.81640
O515        O  0.85072465  0.83220425  0.35985510    -0.84390
C516        C  0.88886793  0.80345919  0.47336497     0.96380
C517        C  0.92579957  0.73940024  0.43001286     1.03820
O518        O  0.86354397  0.77847978  0.40441683    -1.13370
O519        O  0.85821838  0.76357976  0.33955793    -0.75800
O520        O  0.90765760  0.78219854  0.34911394    -0.79290
O521        O  0.86412575  0.78574591  0.47225276    -0.79980
C522        C  0.88841777  0.76320834  0.33408590     0.95280
O523        O  0.89118106  0.84141885  0.39291035    -0.77930
O524        O  0.80637529  0.74539106  0.38075207    -0.83130
C525        C  0.79599560  0.79628031  0.43277288     0.97910
C526        C  0.81221837  0.71795920  0.39270822     1.03820
O527        O  0.80646361  0.76883862  0.44126749    -0.78770
C528        C  0.86921832  0.85152158  0.37477503     1.02120
Fe529      Fe  0.16176719  0.78774611  0.86544375     1.65780
Fe530      Fe  0.09139843  0.80878878  0.89752693     1.73250
Fe531      Fe  0.13114451  0.75040897  0.93195293     1.54410
O532        O  0.15452726  0.71501662  0.90455213    -0.82510
O533        O  0.10724686  0.83097834  0.94080195    -0.80810
O534        O  0.17085146  0.73895159  0.85940595    -0.85010
O535        O  0.19668613  0.78939196  0.89825460    -0.79870
O536        O  0.08416711  0.73260737  0.92121886    -0.81640
O537        O  0.10894047  0.84499625  0.86862509    -0.84390
C538        C  0.19772953  0.78211744  0.92768488     0.96380
C539        C  0.17232146  0.71576312  0.87926523     1.03820
O540        O  0.12918460  0.78202582  0.89832534    -1.13370
O541        O  0.07925065  0.78006562  0.85647272    -0.75800
O542        O  0.12617289  0.78626307  0.83054861    -0.79290
O543        O  0.17565035  0.76773978  0.94347194    -0.79980
C544        C  0.09856001  0.77267345  0.83299626     0.95280
O545        O  0.16078127  0.83732021  0.87140645    -0.77930
O546        O  0.06639057  0.78113127  0.92785614    -0.83130
C547        C  0.11234273  0.81417013  0.96644573     0.97910
C548        C  0.06066544  0.75227464  0.92384409     1.03820
O549        O  0.11306093  0.78352071  0.96541024    -0.78770
C550        C  0.13701866  0.85623020  0.87073326     1.02120
Fe551      Fe  0.32621807  0.78347507  0.07349315     1.65780
Fe552      Fe  0.40301518  0.80294973  0.05679582     1.73250
Fe553      Fe  0.36543469  0.74679763  0.01218394     1.54410
O554        O  0.34514559  0.70935693  0.03867109    -0.82510
O555        O  0.39863849  0.82512965  0.01067656    -0.80810
O556        O  0.30777818  0.73793274  0.06422254    -0.85010
O557        O  0.30364531  0.80017063  0.03421832    -0.79870
O558        O  0.41180784  0.72915141  0.01811734    -0.81640
O559        O  0.38309960  0.84286031  0.07675359    -0.84390
C560        C  0.30284453  0.78608124  0.00722934     0.96380
C561        C  0.31740984  0.71168499  0.05196912     1.03820
O562        O  0.36513559  0.77761346  0.04768161    -1.13370
O563        O  0.40422809  0.77636392  0.10087713    -0.75800
O564        O  0.35157016  0.76660974  0.11196929    -0.79290
O565        O  0.32050479  0.76210884  0.00006432    -0.79980
C566        C  0.38154000  0.76182995  0.11702765     0.95280
O567        O  0.33246249  0.83082386  0.08586373    -0.77930
O568        O  0.43431263  0.77294753  0.03695094    -0.83130
C569        C  0.39098114  0.81123459  0.98387389     0.97910
C570        C  0.43631705  0.74688826  0.02241545     1.03820
O571        O  0.38343035  0.78163237  0.98227003    -0.78770
C572        C  0.35504848  0.85100023  0.08435222     1.02120
Fe573      Fe  0.29736767  0.57515000  0.81112595     1.65780
Fe574      Fe  0.30941702  0.55562736  0.88759737     1.73250
Fe575      Fe  0.26252021  0.50896284  0.84019359     1.54410
O576        O  0.22348761  0.53597293  0.82342910    -0.82510
O577        O  0.32363200  0.50584031  0.89344027    -0.80810
O578        O  0.25340779  0.56375225  0.78838935    -0.85010
O579        O  0.32063288  0.53896703  0.78922646    -0.79870
O580        O  0.24646225  0.50499204  0.88912879    -0.81640
O581        O  0.35523462  0.56127181  0.86719674    -0.84390
C582        C  0.30620430  0.51388485  0.78069038     0.96380
C583        C  0.22634196  0.55172980  0.79711109     1.03820
O584        O  0.28932059  0.54675201  0.84692451    -1.13370
O585        O  0.29299832  0.60502629  0.88462732    -0.75800
O586        O  0.27401622  0.61068039  0.83453424    -0.79290
O587        O  0.27973138  0.50434685  0.79335284    -0.79980
C588        C  0.27505204  0.61954115  0.86376463     0.95280
O589        O  0.34272071  0.59128643  0.82595297    -0.77930
O590        O  0.26637525  0.54926949  0.90973633    -0.83130
C591        C  0.31851734  0.48052474  0.87607236     0.97910
C592        C  0.25471803  0.52176182  0.91359824     1.03820
O593        O  0.29947858  0.48066507  0.85246629    -0.78770
C594        C  0.36372074  0.57641752  0.84218067     1.02120
Fe595      Fe  0.29493289  0.38098770  0.63825394     1.65780
Fe596      Fe  0.31014920  0.40424442  0.56394895     1.73250
Fe597      Fe  0.26023917  0.44839849  0.61200022     1.54410
O598        O  0.22086649  0.42156231  0.62968924    -0.82510
O599        O  0.32536802  0.45362030  0.56156511    -0.80810
O600        O  0.25185296  0.39167668  0.66081859    -0.85010
O601        O  0.31730354  0.41724134  0.66354747    -0.79870
O602        O  0.24562523  0.45322635  0.56340201    -0.81640
O603        O  0.35477622  0.39771402  0.58396161    -0.84390
C604        C  0.30256835  0.44337217  0.66999777     0.96380
C605        C  0.22499421  0.40526379  0.65556589     1.03820
O606        O  0.28822782  0.41134848  0.60436325    -1.13370
O607        O  0.29472576  0.35526513  0.56368034    -0.75800
O608        O  0.27030040  0.34774146  0.61134600    -0.79290
O609        O  0.27517400  0.44983488  0.65850582    -0.79980
C610        C  0.27259630  0.34204558  0.58125133     0.95280
O611        O  0.33998723  0.36472984  0.62221149    -0.77930
O612        O  0.26768051  0.41002329  0.54275351    -0.83130
C613        C  0.32014329  0.47797361  0.58002378     0.97910
C614        C  0.25573656  0.43708862  0.53911584     1.03820
O615        O  0.29752878  0.47810583  0.60075528    -0.78770
C616        C  0.36194336  0.37985283  0.60715822     1.02120
Fe617      Fe  0.89812602  0.15034770  0.77476776     1.65780
Fe618      Fe  0.91836844  0.07555301  0.79249748     1.73250
Fe619      Fe  0.96194227  0.11611817  0.73678732     1.54420
O620        O  0.93564294  0.13904923  0.70073718    -0.82510
O621        O  0.96626097  0.07306719  0.80893380    -0.80810
O622        O  0.90990480  0.17326932  0.73232638    -0.85010
O623        O  0.93605203  0.17311273  0.79583051    -0.79870
O624        O  0.95466599  0.07045880  0.71591405    -0.81640
O625        O  0.91072657  0.09873360  0.83437553    -0.84390
C626        C  0.96358953  0.17619677  0.78230654     0.96380
C627        C  0.92271819  0.16636828  0.70545238     1.03820
O628        O  0.92630347  0.11353753  0.76755891    -1.13370
O629        O  0.87011013  0.07624087  0.77395827    -0.75800
O630        O  0.86263904  0.12496819  0.75176122    -0.79290
O631        O  0.97276826  0.15978188  0.75764725    -0.79980
C632        C  0.85582149  0.09522509  0.75402292     0.95280
O633        O  0.88029212  0.13862779  0.82042227    -0.77930
O634        O  0.92877405  0.04682710  0.75651551    -0.83130
C635        C  0.99266930  0.08193454  0.79549546     0.97910
C636        C  0.94247141  0.04582432  0.72958083     1.03820
O637        O  0.99346438  0.09632953  0.76869020    -0.78770
C638        C  0.89396766  0.12231923  0.84196201     1.02120
Fe639      Fe  0.10075408  0.31990765  0.76956549     1.65780
Fe640      Fe  0.07179892  0.38881782  0.79881067     1.73250
Fe641      Fe  0.03273635  0.35299352  0.73925158     1.54410
O642        O  0.05700667  0.32708880  0.70242238    -0.82510
O643        O  0.02778677  0.37551106  0.82031953    -0.80810
O644        O  0.10667760  0.31907841  0.72030080    -0.85010
O645        O  0.06649527  0.28552512  0.76695788    -0.79870
O646        O  0.04557633  0.39924977  0.72182735    -0.81640
O647        O  0.09729903  0.36531798  0.83380371    -0.84390
C648        C  0.03595994  0.28551581  0.76626525     0.96380
C649        C  0.08472090  0.31383018  0.69977678     1.03820
O650        O  0.06841654  0.35335111  0.76888996    -1.13370
O651        O  0.11334900  0.40059496  0.77270076    -0.75800
O652        O  0.13769845  0.35319768  0.77205228    -0.79290
O653        O  0.01895357  0.30943290  0.75779693    -0.79980
C654        C  0.13590900  0.38215178  0.76273393     0.95280
O655        O  0.09540211  0.31511033  0.81877073    -0.77930
O656        O  0.04677782  0.41943977  0.77131128    -0.83130
C657        C  0.00167597  0.37338428  0.80395037     0.97910
C658        C  0.04634568  0.42327101  0.74136128     1.03820
O659        O  0.00196798  0.37391359  0.77318753    -0.78770
C660        C  0.09497203  0.33605401  0.84080328     1.02120
Fe661      Fe  0.16377258  0.17836454  0.56981086     1.65780
Fe662      Fe  0.08594912  0.16402337  0.55539562     1.73250
Fe663      Fe  0.12889048  0.21228536  0.50551716     1.54410
O664        O  0.14857980  0.25064030  0.53178340    -0.82510
O665        O  0.07923457  0.14683383  0.50728193    -0.80810
O666        O  0.18561029  0.22120621  0.55629353    -0.85010
O667        O  0.18447768  0.15615325  0.53197792    -0.79870
O668        O  0.08065302  0.22870894  0.50658059    -0.81640
O669        O  0.10758322  0.12018332  0.56184385    -0.84390
C670        C  0.18846527  0.16908831  0.50472333     0.96380
C671        C  0.17637839  0.24771464  0.54472149     1.03820
O672        O  0.12565487  0.18507391  0.54347655    -1.13370
O673        O  0.09070511  0.18358441  0.60320803    -0.75800
O674        O  0.14131166  0.20215488  0.60643168    -0.79290
O675        O  0.17467963  0.19502048  0.49641296    -0.79980
C676        C  0.11175981  0.20327799  0.61499778     0.95280
O677        O  0.15193855  0.13303303  0.58753250    -0.77930
O678        O  0.05967342  0.20379321  0.54857743    -0.83130
C679        C  0.09245245  0.15392977  0.48010509     0.97910
C680        C  0.05628733  0.21821350  0.52242181     1.03820
O681        O  0.11254286  0.17653538  0.47675187    -0.78770
C682        C  0.13331868  0.11217519  0.57545115     1.02120
Fe683      Fe  0.33152465  0.17358107  0.36702574     1.65780
Fe684      Fe  0.40608296  0.16241977  0.39823458     1.73250
Fe685      Fe  0.35595952  0.21652319  0.43300542     1.54420
O686        O  0.33155537  0.24926711  0.40438102    -0.82510
O687        O  0.40021332  0.14499252  0.44549525    -0.80810
O688        O  0.31051649  0.21879931  0.36618317    -0.85010
O689        O  0.30054675  0.16058192  0.40189019    -0.79870
O690        O  0.39947728  0.24146242  0.42607417    -0.81640
O691        O  0.39095328  0.11860101  0.38222493    -0.84390
C692        C  0.29641546  0.17110873  0.43022651     0.96380
C693        C  0.31177159  0.24515316  0.38149457     1.03820
O694        O  0.36428458  0.18416351  0.39948148    -1.13370
O695        O  0.41266839  0.18386690  0.35234648    -0.75800
O696        O  0.36280496  0.18694226  0.33129874    -0.79290
O697        O  0.31337053  0.19299004  0.44350024    -0.79980
C698        C  0.39239586  0.19529436  0.33202086     0.95280
O699        O  0.34204488  0.12538489  0.36312292    -0.77930
O700        O  0.43050282  0.19915620  0.41638085    -0.83130
C701        C  0.39103775  0.16160005  0.47000358     0.97910
C702        C  0.42698021  0.22794507  0.42410384     1.03820
O703        O  0.37736317  0.18861521  0.46721448    -0.78770
C704        C  0.36502665  0.10757101  0.37140965     1.02120
Fe705      Fe  0.79234081  0.88652847  0.13938629     1.65780
Fe706      Fe  0.81662381  0.90720288  0.06419428     1.73250
Fe707      Fe  0.75863228  0.95085000  0.10237147     1.54410
O708        O  0.71894142  0.92501076  0.12178437    -0.82510
O709        O  0.83803799  0.95322976  0.06934301    -0.80810
O710        O  0.74530634  0.89234107  0.15451396    -0.85010
O711        O  0.80494462  0.92381253  0.16855484    -0.79870
O712        O  0.74299508  0.94699833  0.05462772    -0.81640
O713        O  0.85624440  0.88876022  0.08630072    -0.84390
C714        C  0.79105653  0.95086773  0.16952898     0.96380
C715        C  0.71991701  0.90705529  0.14673814     1.03820
O716        O  0.78900919  0.91483236  0.10186482    -1.13370
O717        O  0.79236680  0.86229567  0.05933037    -0.75800
O718        O  0.77853052  0.84893681  0.11035449    -0.79290
O719        O  0.77226539  0.96064166  0.14791183    -0.79980
C720        C  0.77779162  0.84406600  0.07995156     0.95280
O721        O  0.84080431  0.87683668  0.13521841    -0.77930
O722        O  0.78681670  0.92637824  0.03225345    -0.83130
C723        C  0.82461796  0.97984410  0.07779283     0.97910
C724        C  0.76130362  0.94210817  0.03023718     1.03820
O725        O  0.79517817  0.98144696  0.08703346    -0.78770
C726        C  0.86273568  0.87991326  0.11432201     1.02120
Fe727      Fe  0.79706840  0.08467730  0.31694578     1.65780
Fe728      Fe  0.81783978  0.05325747  0.38830500     1.73250
Fe729      Fe  0.76317643  0.01453778  0.34133131     1.54420
O730        O  0.72423342  0.04146113  0.32408747    -0.82510
O731        O  0.83707309  0.00688568  0.38140982    -0.80810
O732        O  0.75202625  0.07725933  0.29593846    -0.85010
O733        O  0.81661417  0.05264731  0.28599844    -0.79870
O734        O  0.74425544  0.01198641  0.38855608    -0.81640
O735        O  0.85952308  0.06734175  0.36593899    -0.84390
C736        C  0.80331294  0.02641772  0.27862278     0.96380
C737        C  0.72626236  0.06143999  0.30097220     1.03820
O738        O  0.79217340  0.05077767  0.34932222    -1.13370
O739        O  0.79636418  0.09949325  0.39671217    -0.75800
O740        O  0.77649861  0.11580752  0.34897441    -0.79290
O741        O  0.78155348  0.01236909  0.29532129    -0.79980
C742        C  0.77770873  0.11738590  0.37956502     0.95280
O743        O  0.84424588  0.09893499  0.32719649    -0.77930
O744        O  0.78347553  0.03501717  0.41694172    -0.83130
C745        C  0.82521042  0.98223904  0.36726093     0.97910
C746        C  0.75834192  0.01823430  0.41517683     1.03820
O747        O  0.79787070  0.98265352  0.35398459    -0.78770
C748        C  0.86627826  0.08423367  0.34195851     1.02120
Fe749      Fe  0.59976452  0.81588767  0.27802383     1.65780
Fe750      Fe  0.57154268  0.88978807  0.29525196     1.73250
Fe751      Fe  0.53360865  0.84389127  0.23944269     1.54420
O752        O  0.56174533  0.82234418  0.20303051    -0.82510
O753        O  0.52415323  0.88488191  0.31411198    -0.80810
O754        O  0.59475018  0.79434702  0.23340231    -0.85010
O755        O  0.56397229  0.78777369  0.29558972    -0.79870
O756        O  0.53821517  0.88900412  0.21776425    -0.81640
O757        O  0.58645562  0.87087858  0.33812067    -0.84390
C758        C  0.53650616  0.78327833  0.28308979     0.96380
C759        C  0.58098291  0.79891309  0.20671043     1.03820
O760        O  0.56813631  0.84993509  0.27088340    -1.13370
O761        O  0.61791982  0.89535826  0.27219512    -0.75800
O762        O  0.63435136  0.84542711  0.25862471    -0.79290
O763        O  0.52527095  0.79979271  0.25986057    -0.79980
C764        C  0.63543541  0.87580773  0.25508169     0.95280
O765        O  0.61080372  0.82582809  0.32570961    -0.77930
O766        O  0.55404057  0.91690507  0.26051533    -0.83130
C767        C  0.49883023  0.87458242  0.29969846     0.97910
C768        C  0.54311093  0.91535866  0.23257854     1.03820
O769        O  0.50014529  0.86226592  0.27157851    -0.78770
C770        C  0.60020046  0.84552318  0.34644618     1.02120
Fe771      Fe  0.39372778  0.64311720  0.27539140     1.65780
Fe772      Fe  0.42073299  0.57029002  0.29458994     1.73250
Fe773      Fe  0.46159363  0.61347548  0.24032852     1.54410
O774        O  0.43878372  0.64407496  0.20799936    -0.82510
O775        O  0.46654208  0.57847513  0.31601289    -0.80810
O776        O  0.38894016  0.65119430  0.22657673    -0.85010
O777        O  0.42922500  0.67644995  0.27823269    -0.79870
O778        O  0.44930537  0.57226341  0.21510439    -0.81640
O779        O  0.39889135  0.58988759  0.33516382    -0.84390
C780        C  0.45976135  0.67591233  0.27706209     0.96380
C781        C  0.41126509  0.65737536  0.20628869     1.03820
O782        O  0.42502409  0.60918876  0.26967054    -1.13370
O783        O  0.37667456  0.56240349  0.26984059    -0.75800
O784        O  0.35552325  0.61117394  0.27343152    -0.79290
O785        O  0.47608318  0.65267950  0.26564686    -0.79980
C786        C  0.35477080  0.58275966  0.26227384     0.95280
O787        O  0.39737291  0.64132410  0.32457536    -0.77930
O788        O  0.44257810  0.54395049  0.26013742    -0.83130
C789        C  0.49248943  0.58192804  0.29918878     0.97910
C790        C  0.44880181  0.54586773  0.23042708     1.03820
O791        O  0.49094597  0.58603957  0.26893633    -0.78770
C792        C  0.39841538  0.61867375  0.34461764     1.02120
Fe793      Fe  0.19531483  0.58102292  0.13427081     1.65780
Fe794      Fe  0.18547560  0.54898993  0.06161149     1.73250
Fe795      Fe  0.22531203  0.50820685  0.11886214     1.54420
O796        O  0.26431818  0.53417799  0.13744706    -0.82510
O797        O  0.17046736  0.49950667  0.05942089    -0.80810
O798        O  0.23438351  0.57000116  0.16367490    -0.85010
O799        O  0.16614630  0.55264593  0.16106409    -0.79870
O800        O  0.24764144  0.49916118  0.07304845    -0.81640
O801        O  0.13967608  0.55897329  0.07917650    -0.84390
C802        C  0.17567223  0.52627754  0.17249013     0.96380
C803        C  0.26050582  0.55416563  0.16060737     1.03820
O804        O  0.20257963  0.54574815  0.10454149    -1.13370
O805        O  0.20252093  0.59774336  0.05910724    -0.75800
O806        O  0.22530847  0.60781424  0.10686401    -0.79290
O807        O  0.20120254  0.51156664  0.16293685    -0.79980
C808        C  0.22388686  0.61196557  0.07669995     0.95280
O809        O  0.15464691  0.59827102  0.11069373    -0.77930
O810        O  0.22887067  0.53855374  0.04230779    -0.83130
C811        C  0.17316947  0.47627507  0.07948793     0.97910
C812        C  0.24458247  0.51301759  0.04568427     1.03820
O813        O  0.18879372  0.47935338  0.10528147    -0.78770
C814        C  0.13236042  0.58151652  0.09831860     1.02120
Fe815      Fe  0.19364818  0.38802103  0.30104140     1.65780
Fe816      Fe  0.17642068  0.40644330  0.37762493     1.73250
Fe817      Fe  0.22826925  0.45302948  0.33417140     1.54420
O818        O  0.26655358  0.42675007  0.31475682    -0.82510
O819        O  0.15787354  0.45356792  0.38011422    -0.80810
O820        O  0.23710253  0.40023286  0.27929021    -0.85010
O821        O  0.17159750  0.42560576  0.27935704    -0.79870
O822        O  0.24615841  0.45170652  0.38120526    -0.81640
O823        O  0.13378656  0.39668077  0.35557260    -0.84390
C824        C  0.18393775  0.45325928  0.27583927     0.96380
C825        C  0.26357425  0.41303720  0.28742828     1.03820
O826        O  0.20011655  0.41566295  0.33843796    -1.13370
O827        O  0.19698355  0.35909690  0.37590954    -0.75800
O828        O  0.21595020  0.35184996  0.32524670    -0.79290
O829        O  0.21066828  0.46134842  0.28851653    -0.79980
C830        C  0.21485601  0.34406366  0.35495885     0.95280
O831        O  0.14811914  0.37023393  0.31229715    -0.77930
O832        O  0.21254449  0.41860153  0.40702633    -0.83130
C833        C  0.16782396  0.48001524  0.36795420     0.97910
C834        C  0.23409326  0.43984087  0.40690709     1.03820
O835        O  0.19307155  0.48242414  0.35085029    -0.78770
C836        C  0.12645337  0.38221976  0.33017686     1.02120
Fe837      Fe  0.83236339  0.28553623  0.58505555     1.65780
Fe838      Fe  0.90354163  0.30470853  0.55040407     1.73250
Fe839      Fe  0.85123444  0.25493209  0.51192401     1.54410
O840        O  0.83483712  0.21582815  0.53845947    -0.82510
O841        O  0.90044851  0.32198380  0.50266372    -0.80810
O842        O  0.80797022  0.24259229  0.57626227    -0.85010
O843        O  0.80105290  0.30849471  0.55652165    -0.79870
O844        O  0.89795086  0.23519284  0.50530458    -0.81640
O845        O  0.88202838  0.34669415  0.56358578    -0.84390
C846        C  0.79216118  0.29844806  0.52920138     0.96380
C847        C  0.81224292  0.21750366  0.55933360     1.03820
O848        O  0.86280055  0.28135811  0.54878977    -1.13370
O849        O  0.91089364  0.28584897  0.59753554    -0.75800
O850        O  0.86461081  0.26133504  0.61210319    -0.79290
O851        O  0.80564786  0.27550702  0.51349478    -0.79980
C852        C  0.89506781  0.26439895  0.61347055     0.95280
O853        O  0.84790044  0.33063223  0.60098524    -0.77930
O854        O  0.92954126  0.26762038  0.53449172    -0.83130
C855        C  0.88391796  0.31225546  0.47861226     0.97910
C856        C  0.92569884  0.24541615  0.51424989     1.03820
O857        O  0.86376010  0.28962754  0.48069123    -0.78770
C858        C  0.86090060  0.35279715  0.58455155     1.02120
Fe859      Fe  0.66832667  0.28404263  0.38255810     1.65780
Fe860      Fe  0.59267488  0.30508117  0.40082693     1.73250
Fe861      Fe  0.62749698  0.24774386  0.44358645     1.54420
O862        O  0.65456933  0.21094062  0.42144165    -0.82510
O863        O  0.59975216  0.32753743  0.44530236    -0.80810
O864        O  0.68532943  0.23793799  0.38702183    -0.85010
O865        O  0.69254426  0.29664250  0.42308628    -0.79870
O866        O  0.58386012  0.22800802  0.42701637    -0.81640
O867        O  0.61241250  0.34398430  0.37825977    -0.84390
C868        C  0.68934944  0.28791489  0.45232271     0.96380
C869        C  0.67963149  0.21314032  0.40352732     1.03820
O870        O  0.63005840  0.27858036  0.40867822    -1.13370
O871        O  0.58849066  0.27843707  0.35778189    -0.75800
O872        O  0.64080877  0.27037194  0.34278357    -0.79290
O873        O  0.66900973  0.26703550  0.46184090    -0.79980
C874        C  0.61028569  0.26562732  0.33937496     0.95280
O875        O  0.66377220  0.33274446  0.37640204    -0.77930
O876        O  0.56179169  0.27584961  0.42356943    -0.83130
C877        C  0.60059659  0.31176902  0.47171123     0.97910
C878        C  0.55922865  0.24604428  0.42449057     1.03820
O879        O  0.60299369  0.28119698  0.47234147    -0.78770
C880        C  0.64118214  0.35288449  0.37589293     1.02120
Fe881      Fe  0.60219926  0.14639511  0.17823791     1.65780
Fe882      Fe  0.57122684  0.07527527  0.15803053     1.73250
Fe883      Fe  0.53539184  0.11683484  0.21613278     1.54410
O884        O  0.56111193  0.14355844  0.25035074    -0.82510
O885        O  0.52693923  0.08896135  0.13715023    -0.80810
O886        O  0.60698598  0.15796808  0.22625631    -0.85010
O887        O  0.56735559  0.17991397  0.17332997    -0.79870
O888        O  0.54752874  0.07226964  0.23682440    -0.81640
O889        O  0.59625463  0.09244336  0.11813242    -0.84390
C890        C  0.53724187  0.18026827  0.17885549     0.96380
C891        C  0.58693120  0.16021581  0.24945665     1.03820
O892        O  0.56987583  0.11355530  0.18447372    -1.13370
O893        O  0.61380087  0.06449911  0.18481299    -0.75800
O894        O  0.63838101  0.11235659  0.18315127    -0.79290
O895        O  0.52222116  0.15895115  0.19504245    -0.79980
C896        C  0.63600458  0.08400364  0.19459038     0.95280
O897        O  0.59933479  0.14350278  0.12894309    -0.77930
O898        O  0.54405447  0.04960462  0.18891163    -0.83130
C899        C  0.50143072  0.09370487  0.15459297     0.97910
C900        C  0.54570069  0.04734301  0.21887133     1.03820
O901        O  0.50306226  0.09440078  0.18521931    -0.78770
C902        C  0.59747233  0.12103026  0.10862100     1.02120
Fe903      Fe  0.39626918  0.32103137  0.17880410     1.65780
Fe904      Fe  0.43082732  0.39152270  0.15780104     1.73250
Fe905      Fe  0.46506541  0.34720189  0.21424434     1.54420
O906        O  0.44032821  0.32270370  0.24980015    -0.82510
O907        O  0.47490150  0.37926290  0.13638296    -0.80810
O908        O  0.39700596  0.30370710  0.22521815    -0.85010
O909        O  0.43002261  0.28802292  0.16575059    -0.79870
O910        O  0.45505366  0.39123633  0.23671583    -0.81640
O911        O  0.40836036  0.37534797  0.11731224    -0.84390
C912        C  0.45965084  0.28545539  0.17304572     0.96380
C913        C  0.41621513  0.30413464  0.24874060     1.03820
O914        O  0.43042787  0.35256638  0.18351135    -1.13370
O915        O  0.38729553  0.40331409  0.18231824    -0.75800
O916        O  0.36332948  0.35554361  0.19290006    -0.79290
O917        O  0.47480899  0.30457255  0.19179164    -0.79980
C918        C  0.36512163  0.38604095  0.19572428     0.95280
O919        O  0.39044211  0.32770613  0.13032645    -0.77930
O920        O  0.45734682  0.41580456  0.19001427    -0.83130
C921        C  0.49995307  0.37437929  0.15347989     0.97910
C922        C  0.45498559  0.41668802  0.22000870     1.03820
O923        O  0.49771095  0.36788359  0.18320519    -0.78770
C924        C  0.39749840  0.34843784  0.10942025     1.02120
Fe925      Fe  0.83261448  0.68070451  0.86648024     1.65780
Fe926      Fe  0.90439476  0.66244301  0.89786336     1.73250
Fe927      Fe  0.85536611  0.71621005  0.93488553     1.54410
O928        O  0.83776959  0.75259442  0.90615726    -0.82510
O929        O  0.90033575  0.64567306  0.94570157    -0.80810
O930        O  0.80576086  0.72212592  0.87713565    -0.85010
O931        O  0.80590720  0.65650869  0.89940190    -0.79870
O932        O  0.90142032  0.73711026  0.93602244    -0.81640
O933        O  0.88278047  0.62069629  0.88530450    -0.84390
C934        C  0.79955224  0.66779867  0.92723453     0.96380
C935        C  0.81172157  0.74871997  0.89082323     1.03820
O936        O  0.86480750  0.68685083  0.89992955    -1.13370
O937        O  0.91041238  0.68160847  0.85039201    -0.75800
O938        O  0.86323026  0.70558479  0.83715721    -0.79290
O939        O  0.81036839  0.69469560  0.93776057    -0.79980
C940        C  0.89386802  0.70258831  0.83462152     0.95280
O941        O  0.84927940  0.63689619  0.84835976    -0.77930
O942        O  0.93136227  0.69842077  0.91346347    -0.83130
C943        C  0.88628613  0.65865158  0.97005464     0.97910
C944        C  0.92851357  0.72419757  0.92889778     1.03820
O945        O  0.86998227  0.68405904  0.96759762    -0.78770
C946        C  0.86277981  0.61459068  0.86375635     1.02120
Fe947      Fe  0.66909850  0.67728984  0.07661387     1.65780
Fe948      Fe  0.59526520  0.65493816  0.05457520     1.73250
Fe949      Fe  0.63629642  0.70720858  0.00796593     1.54410
O950        O  0.66365856  0.74393075  0.02997734    -0.82510
O951        O  0.60199093  0.62990703  0.01065256    -0.80810
O952        O  0.67623171  0.72622521  0.07887832    -0.85010
O953        O  0.70278891  0.67289916  0.04104438    -0.79870
O954        O  0.59170485  0.72936798  0.01601867    -0.81640
O955        O  0.61669354  0.61772799  0.07909518    -0.84390
C956        C  0.70126975  0.67301539  0.01066643     0.96380
C957        C  0.67891850  0.74686243  0.05650540     1.03820
O958        O  0.63370683  0.68047835  0.04635285    -1.13370
O959        O  0.58805406  0.68375427  0.09590345    -0.75800
O960        O  0.63745958  0.68127274  0.11560826    -0.79290
O961        O  0.67787822  0.68475555  0.99523299    -0.79980
C962        C  0.60920840  0.69326927  0.11616712     0.95280
O963        O  0.66818402  0.62781729  0.07399571    -0.77930
O964        O  0.56690687  0.68492378  0.03107497    -0.83130
C965        C  0.60510608  0.64374831  0.98318827     0.97910
C966        C  0.56633906  0.71199868  0.01838121     1.03820
O967        O  0.61288561  0.67313904  0.98040531    -0.78770
C968        C  0.64524150  0.60792249  0.07489241     1.02120
Fe969      Fe  0.69517628  0.87950525  0.80561821     1.65780
Fe970      Fe  0.68021928  0.91112392  0.87795652     1.73250
Fe971      Fe  0.72613303  0.95091256  0.82444012     1.54420
O972        O  0.76613225  0.92320289  0.81112984    -0.82510
O973        O  0.66604875  0.96085922  0.87721903    -0.80810
O974        O  0.73782106  0.89021058  0.77994376    -0.85010
O975        O  0.66957078  0.91017959  0.77815860    -0.79870
O976        O  0.74197679  0.96121216  0.87257420    -0.81640
O977        O  0.63640486  0.90208911  0.85829055    -0.84390
C978        C  0.68072866  0.93690940  0.76913274     0.96380
C979        C  0.76400096  0.90504498  0.78628502     1.03820
O980        O  0.70106490  0.91383051  0.83655565    -1.13370
O981        O  0.69587539  0.86213279  0.88176113    -0.75800
O982        O  0.72107967  0.85074631  0.83488150    -0.79290
O983        O  0.70828326  0.94751149  0.77794712    -0.79980
C984        C  0.71738793  0.84675776  0.86500563     0.95280
O985        O  0.65119965  0.86353208  0.82512597    -0.77930
O986        O  0.72151213  0.92068150  0.90023442    -0.83130
C987        C  0.67101650  0.98386067  0.85730294     0.97910
C988        C  0.73505208  0.94750688  0.89940523     1.03820
O989        O  0.68826524  0.97989935  0.83261915    -0.78770
C990        C  0.62929316  0.88064878  0.83819153     1.02120
Fe991      Fe  0.68399379  0.08528092  0.64423432     1.65780
Fe992      Fe  0.67635870  0.06024538  0.56819424     1.73250
Fe993      Fe  0.72013499  0.01679602  0.62016855     1.54410
O994        O  0.75863458  0.04584897  0.63609621    -0.82510
O995        O  0.66173631  0.01064051  0.56591808    -0.80810
O996        O  0.72753500  0.07656093  0.66756604    -0.85010
O997        O  0.66099591  0.05012613  0.66971590    -0.79870
O998        O  0.73717069  0.00903609  0.57186439    -0.81640
O999        O  0.63040678  0.06798342  0.58467338    -0.84390
C1000       C  0.67475231  0.02415161  0.67721471     0.96380
C1001       C  0.75473606  0.06357339  0.66130358     1.03820
O1002       O  0.69338973  0.05406929  0.61059069    -1.13370
O1003       O  0.69246256  0.10910496  0.56785277    -0.75800
O1004       O  0.70788917  0.11931015  0.61832064    -0.79290
O1005       O  0.70279178  0.01659153  0.66690290    -0.79980
C1006       C  0.71000234  0.12459590  0.58824114     0.95280
O1007       O  0.63858744  0.09888919  0.62728402    -0.77930
O1008       O  0.72014444  0.05285163  0.54906538    -0.83130
C1009       C  0.66447766  0.98631121  0.58463760     0.97910
C1010       C  0.73082206  0.02503260  0.54653755     1.03820
O1011       O  0.68305774  0.98642066  0.60874509    -0.78770
C1012       C  0.61982530  0.08473038  0.60777132     1.02120
Fe1013     Fe  0.90469656  0.81450792  0.67230795     1.65780
Fe1014     Fe  0.92829495  0.88878368  0.65421518     1.73250
Fe1015     Fe  0.97037121  0.84533931  0.70860661     1.54420
O1016       O  0.94310702  0.82426288  0.74529245    -0.82510
O1017       O  0.97572088  0.88888025  0.63630698    -0.80810
O1018       O  0.91545365  0.79112420  0.71449824    -0.85010
O1019       O  0.94201961  0.79029361  0.65048807    -0.79870
O1020       O  0.96540013  0.89044515  0.73011226    -0.81640
O1021       O  0.91752370  0.86660259  0.61212013    -0.84390
C1022       C  0.96979638  0.78663764  0.66317673     0.96380
C1023       C  0.92848864  0.79777535  0.74109032     1.03820
O1024       O  0.93457933  0.85003013  0.67870208    -1.13370
O1025       O  0.88043173  0.89052514  0.67415153    -0.75800
O1026       O  0.87047915  0.84184342  0.69591944    -0.79290
O1027       O  0.97864324  0.80105525  0.68872981    -0.79980
C1028       C  0.86511135  0.87196039  0.69397129     0.95280
O1029       O  0.88668571  0.82664413  0.62721778    -0.77930
O1030       O  0.94151558  0.91663987  0.69028241    -0.83130
C1031       C  0.00173716  0.87789447  0.64826176     0.97910
C1032       C  0.95478315  0.91588954  0.71729408     1.03820
O1033       O  0.00257559  0.86335462  0.67508068    -0.78770
C1034       C  0.89947352  0.84354834  0.60544799     1.02120
Fe1035     Fe  0.10234900  0.64389066  0.66960934     1.65780
Fe1036     Fe  0.06908483  0.57137649  0.65710143     1.73250
Fe1037     Fe  0.03176335  0.62523374  0.70640558     1.54420
O1038       O  0.05973914  0.64581274  0.74242079    -0.82510
O1039       O  0.02089743  0.57389442  0.63966402    -0.80810
O1040       O  0.09448011  0.67144909  0.71133230    -0.85010
O1041       O  0.07065572  0.67138061  0.64575350    -0.79870
O1042       O  0.03000751  0.58149316  0.73145285    -0.81640
O1043       O  0.08201554  0.58933206  0.61304045    -0.84390
C1044       C  0.04323638  0.67995431  0.65644630     0.96380
C1045       C  0.07963755  0.66855135  0.73808479     1.03820
O1046       O  0.06751464  0.61308465  0.67810362    -1.13370
O1047       O  0.11660435  0.56574626  0.67827008    -0.75800
O1048       O  0.13237116  0.61484765  0.69464833    -0.79290
O1049       O  0.02918928  0.66804986  0.68129675    -0.79980
C1050       C  0.13390164  0.58440697  0.69646910     0.95280
O1051       O  0.11785912  0.62616388  0.62472261    -0.77930
O1052       O  0.05232419  0.54829462  0.69524970    -0.83130
C1053       C  0.99648859  0.58885452  0.65162505     0.97910
C1054       C  0.03735585  0.55350909  0.72115470     1.03820
O1055       O  0.99922473  0.60798327  0.67499184    -0.78770
C1056       C  0.10163356  0.61052148  0.60424488     1.02120
C1057       C  0.97940812  0.73609339  0.63398456    -0.09990
C1058       C  0.99218091  0.76289977  0.65008819     0.06210
C1059       C  0.02543237  0.76351269  0.65837290    -0.03750
C1060       C  0.04401378  0.73661712  0.65276220    -0.08200
C1061       C  0.02930822  0.70829585  0.64300254     0.05320
C1062       C  0.99759444  0.70818700  0.63151820    -0.03230
Br1063     Br  0.97724955  0.66959482  0.61662678    -0.02920
H1064       H  0.95419412  0.73533885  0.62719640     0.09240
H1065       H  0.06860288  0.73621570  0.66166011     0.07250
Br1066     Br  0.04661930  0.79625232  0.68362027    -0.03350
C1067       C  0.81114221  0.89669116  0.70680739    -0.09990
C1068       C  0.84106705  0.88553454  0.71732555     0.06210
C1069       C  0.84677065  0.88466919  0.75096007    -0.03750
C1070       C  0.82217744  0.89260589  0.77325588    -0.08200
C1071       C  0.79143121  0.90156388  0.76275099     0.05320
C1072       C  0.78660212  0.90479898  0.72907728    -0.03230
Br1073     Br  0.74735316  0.92138588  0.71189029    -0.02920
H1074       H  0.80647067  0.89822273  0.68119918     0.09240
H1075       H  0.82678006  0.89060178  0.79883544     0.07250
Br1076     Br  0.88795396  0.87292943  0.76784018    -0.03350
C1077       C  0.65585806  0.98776762  0.75522309    -0.09990
C1078       C  0.66264006  0.95590723  0.74658910     0.06210
C1079       C  0.66079420  0.94607733  0.71438283    -0.03750
C1080       C  0.66059718  0.96945017  0.69081723    -0.08200
C1081       C  0.65951235  0.00201048  0.69940888     0.05320
C1082       C  0.65334857  0.01101776  0.73149024    -0.03230
Br1083     Br  0.64715106  0.05479791  0.74449729    -0.02920
H1084       H  0.65580711  0.99508747  0.78031743     0.09240
H1085       H  0.66501015  0.96231193  0.66603497     0.07250
Br1086     Br  0.66426121  0.90198461  0.70131347    -0.03350
C1087       C  0.79691558  0.80650789  0.88329447    -0.09990
C1088       C  0.78713423  0.77491820  0.88942142     0.06210
C1089       C  0.75359944  0.76876543  0.89353491    -0.03750
C1090       C  0.73070198  0.79312672  0.88845018    -0.08200
C1091       C  0.74053454  0.82407179  0.87983870     0.05320
C1092       C  0.77405212  0.83082423  0.87840208    -0.03230
Br1093     Br  0.78984899  0.87289871  0.86832969    -0.02920
H1094       H  0.82241116  0.81206197  0.88088045     0.09240
H1095       H  0.70516110  0.78745983  0.88974370     0.07250
Br1096     Br  0.73751940  0.72780076  0.90698327    -0.03350
C1097       C  0.92084534  0.71678570  0.78261975    -0.09990
C1098       C  0.91020006  0.72603881  0.81332211     0.06210
C1099       C  0.90994051  0.75906444  0.82139065    -0.03750
C1100       C  0.91816641  0.78223492  0.79837013    -0.08200
C1101       C  0.92621027  0.77315549  0.76681481     0.05320
C1102       C  0.92887518  0.73992712  0.75944428    -0.03230
Br1103     Br  0.94309256  0.72437134  0.71804288    -0.02920
H1104       H  0.92129764  0.69159329  0.77608331     0.09240
H1105       H  0.91635784  0.80742668  0.80465247     0.07250
Br1106     Br  0.89675209  0.77408751  0.86310941    -0.03350
C1107       C  0.78433214  0.65307716  0.98126539    -0.09990
C1108       C  0.77740812  0.65105391  0.94832855     0.06210
C1109       C  0.74586700  0.64483670  0.93817794    -0.03750
C1110       C  0.72092076  0.64901474  0.96025381    -0.08200
C1111       C  0.72758810  0.65901145  0.99194882     0.05320
C1112       C  0.75956854  0.65806495  0.00336218    -0.03230
Br1113     Br  0.77220551  0.66914031  0.04658488    -0.02920
H1114       H  0.80907178  0.65633641  0.98906920     0.09240
H1115       H  0.69627901  0.64758959  0.95175168     0.07250
Br1116     Br  0.73503981  0.63706474  0.89390636    -0.03350
C1117       C  0.48522501  0.20165400  0.16192958    -0.09990
C1118       C  0.51847306  0.20657407  0.16596240     0.06210
C1119       C  0.53194831  0.23713706  0.16029614    -0.03750
C1120       C  0.51126229  0.26287264  0.15692467    -0.08200
C1121       C  0.47786285  0.25852827  0.16048084     0.05320
C1122       C  0.46453020  0.22753352  0.15969285    -0.03230
Br1123     Br  0.41894450  0.21861256  0.16120497    -0.02920
H1124       H  0.47501006  0.17782863  0.16340927     0.09240
H1125       H  0.52141587  0.28683791  0.15566239     0.07250
Br1126     Br  0.57735533  0.24705241  0.16163148    -0.03350
C1127       C  0.58229845  0.21436042  0.32506330    -0.09990
C1128       C  0.60057172  0.24111017  0.31498307     0.06210
C1129       C  0.61420787  0.24055923  0.28381998    -0.03750
C1130       C  0.61023390  0.21362424  0.26382675    -0.08200
C1131       C  0.59264504  0.18633008  0.27392675     0.05320
C1132       C  0.57826050  0.18721285  0.30501216    -0.03230
Br1133     Br  0.55478069  0.15147335  0.32240501    -0.02920
H1134       H  0.57233561  0.21391893  0.34932600     0.09240
H1135       H  0.62053462  0.21448220  0.23972972     0.07250
Br1136     Br  0.63742349  0.27672343  0.26695538    -0.03350
C1137       C  0.73425003  0.30113741  0.52921562    -0.09990
C1138       C  0.76332572  0.31161420  0.51576826     0.06210
C1139       C  0.76450902  0.32370613  0.48443064    -0.03750
C1140       C  0.73832188  0.31879558  0.46455018    -0.08200
C1141       C  0.71128067  0.30177303  0.47599634     0.05320
C1142       C  0.70785792  0.29602565  0.50949539    -0.03230
Br1143     Br  0.66979453  0.27866988  0.52995784    -0.02920
H1144       H  0.73334355  0.29284588  0.55394917     0.09240
H1145       H  0.74062269  0.32549756  0.43943108     0.07250
Br1146     Br  0.80301247  0.34242152  0.46664126    -0.03350
C1147       C  0.76534913  0.18356147  0.54080690    -0.09990
C1148       C  0.78902252  0.19048699  0.56415130     0.06210
C1149       C  0.78657999  0.17531159  0.59415822    -0.03750
C1150       C  0.76076821  0.15457437  0.60082280    -0.08200
C1151       C  0.73612122  0.14807641  0.57818069     0.05320
C1152       C  0.73921586  0.16249313  0.54741678    -0.03230
Br1153     Br  0.70806699  0.15585817  0.51405678    -0.02920
H1154       H  0.76647676  0.19556675  0.51772012     0.09240
H1155       H  0.76030674  0.14329251  0.62428488     0.07250
Br1156     Br  0.81830681  0.18208095  0.62701643    -0.03350
C1157       C  0.32233385  0.40761025  0.27390878    -0.09990
C1158       C  0.29060811  0.41196151  0.26347681     0.06210
C1159       C  0.28481741  0.41289520  0.22974280    -0.03750
C1160       C  0.31002406  0.40709180  0.20761067    -0.08200
C1161       C  0.34133271  0.40078345  0.21819562     0.05320
C1162       C  0.34738781  0.40160644  0.25172392    -0.03230
Br1163     Br  0.38858610  0.39108156  0.26912635    -0.02920
H1164       H  0.32734583  0.40680132  0.29948883     0.09240
H1165       H  0.30483681  0.40615525  0.18205872     0.07250
Br1166     Br  0.24307461  0.42195836  0.21194849    -0.03350
C1167       C  0.16842648  0.52809261  0.22961489    -0.09990
C1168       C  0.15953940  0.51379562  0.20059375     0.06210
C1169       C  0.14838907  0.48208295  0.19992143    -0.03750
C1170       C  0.15283239  0.46301684  0.22681003    -0.08200
C1171       C  0.16872837  0.47561063  0.25379217     0.05320
C1172       C  0.17393588  0.50905534  0.25627167    -0.03230
Br1173     Br  0.19259320  0.53003417  0.29300544    -0.02920
H1174       H  0.17634405  0.55289728  0.23008175     0.09240
H1175       H  0.14759185  0.43764271  0.22494673     0.07250
Br1176     Br  0.13260508  0.46268818  0.16110950    -0.03350
C1177       C  0.48226050  0.49907483  0.22902561    -0.09990
C1178       C  0.45518661  0.51480810  0.21624169     0.06210
C1179       C  0.42752261  0.49689202  0.20955352    -0.03750
C1180       C  0.42517641  0.46528857  0.21988699    -0.08200
C1181       C  0.45220649  0.44918081  0.23222148     0.05320
C1182       C  0.48089660  0.46654206  0.23696183    -0.03230
Br1183     Br  0.51883323  0.44633679  0.25342196    -0.02920
H1184       H  0.50345396  0.51284860  0.23564871     0.09240
H1185       H  0.40338591  0.45207732  0.21434723     0.07250
Br1186     Br  0.39209160  0.51577639  0.18732916    -0.03350
C1187       C  0.32541531  0.54301606  0.22596822    -0.09990
C1188       C  0.32864461  0.57453203  0.23819911     0.06210
C1189       C  0.30902815  0.59866018  0.22399815    -0.03750
C1190       C  0.28849508  0.59121060  0.19833642    -0.08200
C1191       C  0.28598907  0.56011795  0.18555832     0.05320
C1192       C  0.30458441  0.53573446  0.19998386    -0.03230
Br1193     Br  0.30129666  0.49189671  0.18630693    -0.02920
H1194       H  0.33940177  0.52385844  0.23645685     0.09240
H1195       H  0.27402378  0.61025272  0.18820598     0.07250
Br1196     Br  0.30797512  0.64300917  0.23722604    -0.03350
C1197       C  0.51310640  0.96542165  0.23338764    -0.09990
C1198       C  0.53805878  0.94703021  0.21910791     0.06210
C1199       C  0.56593586  0.96275592  0.20833902    -0.03750
C1200       C  0.56994376  0.99534403  0.21443715    -0.08200
C1201       C  0.54560139  0.01390581  0.22922328     0.05320
C1202       C  0.51645024  0.99869409  0.23784242    -0.03230
Br1203     Br  0.48030058  0.02270778  0.25411738    -0.02920
H1204       H  0.49181571  0.95351518  0.24296930     0.09240
H1205       H  0.59093420  0.00709951  0.20447244     0.07250
Br1206     Br  0.60005043  0.93975032  0.18694109    -0.03350
C1207       C  0.48309707  0.76103793  0.29102551    -0.09990
C1208       C  0.51642489  0.75715124  0.29447096     0.06210
C1209       C  0.52932876  0.72669370  0.30084579    -0.03750
C1210       C  0.50927505  0.70015697  0.29812214    -0.08200
C1211       C  0.47706373  0.70389522  0.28855030     0.05320
C1212       C  0.46332503  0.73473319  0.28693546    -0.03230
Br1213     Br  0.41997369  0.74361787  0.27307778    -0.02920
H1214       H  0.47307738  0.78458417  0.28714787     0.09240
H1215       H  0.51958293  0.67644120  0.30080028     0.07250
Br1216     Br  0.57439113  0.71896891  0.30834218    -0.03350
C1217       C  0.61838639  0.76002357  0.18018827    -0.09990
C1218       C  0.58790121  0.77476077  0.18047557     0.06210
C1219       C  0.56411459  0.76211785  0.15961547    -0.03750
C1220       C  0.57110746  0.73525788  0.13971485    -0.08200
C1221       C  0.60162916  0.72000874  0.13995644     0.05320
C1222       C  0.62548569  0.73336530  0.16062835    -0.03230
Br1223     Br  0.66886289  0.71735720  0.16445856    -0.02920
H1224       H  0.63704183  0.76907474  0.19601759     0.09240
H1225       H  0.55240442  0.72628502  0.12394273     0.07250
Br1226     Br  0.52110897  0.77918401  0.15857739    -0.03350
C1227       C  0.76285760  0.99851490  0.50276038    -0.09990
C1228       C  0.73383437  0.01211042  0.51327103     0.06210
C1229       C  0.70948947  0.01849485  0.49000168    -0.03750
C1230       C  0.71608758  0.01528277  0.45709662    -0.08200
C1231       C  0.74677242  0.00657146  0.44666010     0.05320
C1232       C  0.76954744  0.99582929  0.46969649    -0.03230
Br1233     Br  0.81192069  0.98120848  0.45744827    -0.02920
H1234       H  0.78151019  0.99294348  0.52000371     0.09240
H1235       H  0.69844430  0.02330736  0.43975632     0.07250
Br1236     Br  0.66750753  0.03518150  0.50017386    -0.03350
C1237       C  0.68824998  0.03999343  0.25832476    -0.09990
C1238       C  0.69925110  0.06594541  0.27734111     0.06210
C1239       C  0.68891278  0.09691804  0.26889096    -0.03750
C1240       C  0.66906058  0.10162350  0.24199075    -0.08200
C1241       C  0.65839263  0.07598198  0.22227658     0.05320
C1242       C  0.66800557  0.04471733  0.23127377    -0.03230
Br1243     Br  0.65676632  0.00799906  0.20599577    -0.02920
H1244       H  0.69676227  0.01605033  0.26353238     0.09240
H1245       H  0.66176600  0.12591908  0.23666610     0.07250
Br1246     Br  0.70096328  0.13388255  0.29388062    -0.03350
C1247       C  0.76219325  0.17176442  0.40003625    -0.09990
C1248       C  0.75382156  0.13971354  0.39458160     0.06210
C1249       C  0.72060888  0.13133469  0.39522407    -0.03750
C1250       C  0.69655846  0.15492029  0.39952079    -0.08200
C1251       C  0.70489154  0.18736954  0.40280383     0.05320
C1252       C  0.73827907  0.19534351  0.40452524    -0.03230
Br1253     Br  0.75308180  0.23814740  0.41340574    -0.02920
H1254       H  0.78741030  0.17879016  0.39931335     0.09240
H1255       H  0.67132375  0.14804028  0.39871327     0.07250
Br1256     Br  0.70684313  0.08799689  0.38800707    -0.03350
C1257       C  0.72304463  0.95855561  0.98774353    -0.09990
C1258       C  0.75465696  0.95462616  0.99766993     0.06210
C1259       C  0.78016894  0.95986997  0.97486974    -0.03750
C1260       C  0.77338049  0.96263847  0.94202109    -0.08200
C1261       C  0.74157193  0.96140029  0.93150892     0.05320
C1262       C  0.71630175  0.96221022  0.95512747    -0.03230
Br1263     Br  0.67138995  0.96472012  0.94549861    -0.02920
H1264       H  0.70334377  0.95631247  0.00500673     0.09240
H1265       H  0.79305892  0.96268250  0.92457947     0.07250
Br1266     Br  0.82506059  0.96223140  0.98625686    -0.03350
C1267       C  0.73193440  0.82292573  0.04649204    -0.09990
C1268       C  0.75625462  0.81724436  0.06933694     0.06210
C1269       C  0.75456069  0.78860987  0.08721721    -0.03750
C1270       C  0.72879086  0.76723313  0.08309659    -0.08200
C1271       C  0.70376934  0.77299681  0.06098702     0.05320
C1272       C  0.70601176  0.80120006  0.04208327    -0.03230
Br1273     Br  0.67369427  0.81266099  0.01135669    -0.02920
H1274       H  0.73213118  0.84519806  0.03316486     0.09240
H1275       H  0.72881774  0.74544432  0.09719362     0.07250
Br1276     Br  0.78722573  0.77705845  0.11766116    -0.03350
C1277       C  0.65522268  0.86791926  0.19840741    -0.09990
C1278       C  0.65537410  0.88716246  0.22666692     0.06210
C1279       C  0.67365509  0.91571155  0.22586817    -0.03750
C1280       C  0.69200112  0.92360581  0.19799867    -0.08200
C1281       C  0.69238213  0.90380841  0.17015814     0.05320
C1282       C  0.67350519  0.87577631  0.17079291    -0.03230
Br1283     Br  0.67388898  0.84621059  0.13516453    -0.02920
H1284       H  0.64106812  0.84604803  0.19786278     0.09240
H1285       H  0.70775000  0.94430648  0.19889377     0.07250
Br1286     Br  0.67707275  0.94270691  0.26321337    -0.03350
C1287       C  0.82532673  0.97009747  0.21405050    -0.09990
C1288       C  0.79672135  0.97274710  0.19619920     0.06210
C1289       C  0.77493080  0.99828632  0.20258223    -0.03750
C1290       C  0.78128560  0.01916749  0.22732076    -0.08200
C1291       C  0.80782852  0.01438044  0.24682782     0.05320
C1292       C  0.83106802  0.99114371  0.23950867    -0.03230
Br1293     Br  0.86986126  0.98730737  0.26415096    -0.02920
H1294       H  0.84295146  0.95165142  0.20842272     0.09240
H1295       H  0.76360427  0.03752664  0.23339244     0.07250
Br1296     Br  0.73577713  0.00731054  0.17958651    -0.03350
C1297       C  0.50749992  0.24817095  0.39821545    -0.09990
C1298       C  0.52561329  0.23556131  0.42379101     0.06210
C1299       C  0.50958591  0.22799217  0.45274593    -0.03750
C1300       C  0.47602173  0.23176200  0.45515426    -0.08200
C1301       C  0.45788995  0.24369451  0.42922192     0.05320
C1302       C  0.47435555  0.25342629  0.40131552    -0.03230
Br1303     Br  0.45167742  0.27228337  0.36614790    -0.02920
H1304       H  0.51973911  0.25637922  0.37652721     0.09240
H1305       H  0.46372133  0.22284051  0.47641150     0.07250
Br1306     Br  0.53276911  0.21362191  0.48980921    -0.03350
C1307       C  0.24489823  0.29392923  0.34068486    -0.09990
C1308       C  0.23688799  0.31703830  0.36435332     0.06210
C1309       C  0.25459089  0.31667344  0.39340120    -0.03750
C1310       C  0.27935736  0.29391348  0.39792663    -0.08200
C1311       C  0.28748697  0.27095128  0.37403501     0.05320
C1312       C  0.26959110  0.27134550  0.34505917    -0.03230
Br1313     Br  0.27810981  0.24297552  0.30930543    -0.02920
H1314       H  0.23227712  0.29388727  0.31790728     0.09240
H1315       H  0.29218287  0.29409022  0.42057403     0.07250
Br1316     Br  0.24778265  0.34770209  0.42711170    -0.03350
C1317       C  0.43704560  0.25729436  0.27948569    -0.09990
C1318       C  0.41188233  0.27938011  0.27390805     0.06210
C1319       C  0.38149580  0.27364709  0.28785199    -0.03750
C1320       C  0.37633715  0.24604328  0.30606308    -0.08200
C1321       C  0.40090367  0.22306822  0.31090767     0.05320
C1322       C  0.43184989  0.22933839  0.29786330    -0.03230
Br1323     Br  0.46719019  0.20017900  0.30306246    -0.02920
H1324       H  0.46050103  0.26106626  0.26828090     0.09240
H1325       H  0.35267023  0.24281280  0.31691049     0.07250
Br1326     Br  0.34636461  0.30324894  0.28317542    -0.03350
C1327       C  0.96658730  0.20302694  0.51138978    -0.09990
C1328       C  0.95644248  0.23308691  0.50141920     0.06210
C1329       C  0.98002755  0.25573219  0.49114943    -0.03750
C1330       C  0.01286889  0.25008557  0.49623327    -0.08200
C1331       C  0.02269909  0.22183767  0.51100432     0.05320
C1332       C  0.99941042  0.19709922  0.51605921    -0.03230
Br1333     Br  0.00989997  0.15481191  0.53055155    -0.02920
H1334       H  0.94890304  0.18530034  0.51885225     0.09240
H1335       H  0.03036304  0.26868138  0.49078629     0.07250
Br1336     Br  0.96847977  0.29699362  0.47463786    -0.03350
C1337       C  0.23910475  0.16031314  0.43208053    -0.09990
C1338       C  0.26891776  0.15897370  0.44752569     0.06210
C1339       C  0.27087619  0.15075878  0.48014884    -0.03750
C1340       C  0.24273903  0.14882222  0.49815179    -0.08200
C1341       C  0.21329509  0.15643200  0.48384667     0.05320
C1342       C  0.21099262  0.15940500  0.45021256    -0.03230
Br1343     Br  0.17096808  0.16600856  0.42825299    -0.02920
H1344       H  0.23771648  0.16557558  0.40655298     0.09240
H1345       H  0.24442540  0.14559042  0.52400430     0.07250
Br1346     Br  0.31096489  0.14520811  0.50189504    -0.03350
C1347       C  0.01446686  0.46955689  0.72265664    -0.09990
C1348       C  0.04430965  0.45735367  0.73247993     0.06210
C1349       C  0.06662696  0.47901268  0.74665637    -0.03750
C1350       C  0.05884018  0.51110010  0.75149131    -0.08200
C1351       C  0.03088078  0.52390784  0.73842905     0.05320
C1352       C  0.00796722  0.50257399  0.72493402    -0.03230
Br1353     Br  0.96891592  0.51810268  0.70628365    -0.02920
H1354       H  0.99603907  0.45341309  0.71369226     0.09240
H1355       H  0.07737267  0.52718372  0.76050902     0.07250
Br1356     Br  0.10974534  0.46781268  0.75785569    -0.03350
C1357       C  0.06536808  0.26718929  0.66588946    -0.09990
C1358       C  0.09062826  0.28832096  0.67460586     0.06210
C1359       C  0.12207862  0.28069544  0.66379816    -0.03750
C1360       C  0.12787110  0.25245168  0.64619072    -0.08200
C1361       C  0.10294854  0.23067502  0.63773093     0.05320
C1362       C  0.07109166  0.23892271  0.64758121    -0.03230
Br1363     Br  0.03423949  0.21294252  0.63730698    -0.02920
H1364       H  0.04100075  0.27205512  0.67435572     0.09240
H1365       H  0.15255306  0.24809000  0.63846021     0.07250
Br1366     Br  0.15836571  0.30861279  0.67107168    -0.03350
C1367       C  0.97730353  0.99987645  0.71776595    -0.09990
C1368       C  0.94598046  0.01280089  0.71822661     0.06210
C1369       C  0.91970439  0.99214636  0.72517846    -0.03750
C1370       C  0.92513034  0.96089201  0.73487161    -0.08200
C1371       C  0.95589546  0.94733259  0.73216368     0.05320
C1372       C  0.98230379  0.96727959  0.72436476    -0.03230
Br1373     Br  0.02522986  0.95024437  0.72144461    -0.02920
H1374       H  0.99795863  0.01541345  0.71406072     0.09240
H1375       H  0.90436262  0.94559463  0.73948508     0.07250
Br1376     Br  0.87560377  0.00636642  0.72512712    -0.03350
C1377       C  0.79880752  0.08045666  0.74114877    -0.09990
C1378       C  0.83100011  0.08276325  0.73121450     0.06210
C1379       C  0.83829653  0.07786731  0.69807224    -0.03750
C1380       C  0.81376421  0.07018940  0.67588249    -0.08200
C1381       C  0.78119855  0.06881888  0.68559019     0.05320
C1382       C  0.77411862  0.07402844  0.71896426    -0.03230
Br1383     Br  0.73128022  0.07320481  0.73684844    -0.02920
H1384       H  0.79261379  0.08495530  0.76622278     0.09240
H1385       H  0.82006148  0.06676855  0.65068475     0.07250
Br1386     Br  0.88134863  0.08291067  0.68147824    -0.03350
C1387       C  0.91768023  0.18385219  0.64769221    -0.09990
C1388       C  0.92247201  0.19182770  0.68017463     0.06210
C1389       C  0.92460230  0.22491243  0.68859737    -0.03750
C1390       C  0.91903802  0.24877035  0.66564955    -0.08200
C1391       C  0.91156139  0.24065388  0.63395254     0.05320
C1392       C  0.91200274  0.20789586  0.62478371    -0.03230
Br1393     Br  0.90254881  0.19472310  0.58153916    -0.02920
H1394       H  0.91636836  0.15889186  0.64043236     0.09240
H1395       H  0.91855886  0.27371844  0.67310929     0.07250
Br1396     Br  0.93438294  0.23988319  0.73112327    -0.03350
C1397       C  0.01732840  0.19910230  0.78113274    -0.09990
C1398       C  0.98543707  0.20170391  0.79248568     0.06210
C1399       C  0.97362221  0.23176128  0.80277517    -0.03750
C1400       C  0.99107769  0.25910783  0.79466379    -0.08200
C1401       C  0.02002050  0.25648775  0.77704523     0.05320
C1402       C  0.03416738  0.22616271  0.77184395    -0.03230
Br1403     Br  0.07350619  0.21913631  0.74764220    -0.02920
H1404       H  0.02730310  0.17584211  0.77477792     0.09240
H1405       H  0.98137214  0.28246020  0.80092996     0.07250
Br1406     Br  0.93272803  0.23767048  0.82428472    -0.03350
C1407       C  0.22515406  0.46045708  0.49452426    -0.09990
C1408       C  0.25410784  0.44830237  0.50570085     0.06210
C1409       C  0.27927936  0.44081150  0.48320456    -0.03750
C1410       C  0.27398783  0.44335640  0.45017777    -0.08200
C1411       C  0.24341232  0.45095026  0.43907173     0.05320
C1412       C  0.21907418  0.46051222  0.46158919    -0.03230
Br1413     Br  0.17497120  0.46783208  0.45040429    -0.02920
H1414       H  0.20570323  0.46578516  0.51141753     0.09240
H1415       H  0.29246457  0.43528606  0.43329511     0.07250
Br1416     Br  0.31994563  0.42223005  0.49487656    -0.03350
C1417       C  0.25586945  0.29437416  0.54693150    -0.09990
C1418       C  0.24743960  0.32027676  0.56698920     0.06210
C1419       C  0.21412360  0.32447722  0.57461317    -0.03750
C1420       C  0.19086063  0.30202061  0.56499370    -0.08200
C1421       C  0.19964159  0.27490193  0.54730692     0.05320
C1422       C  0.23237752  0.27179862  0.53721015    -0.03230
Br1423     Br  0.24621565  0.23710009  0.50995520    -0.02920
H1424       H  0.28089490  0.29093797  0.53982684     0.09240
H1425       H  0.16593842  0.30503867  0.57272299     0.07250
Br1426     Br  0.19775987  0.36078779  0.59733637    -0.03350
C1427       C  0.14764587  0.40744771  0.70898113    -0.09990
C1428       C  0.15916988  0.39321360  0.73752200     0.06210
C1429       C  0.19183796  0.38461635  0.73879359    -0.03750
C1430       C  0.21192120  0.38929591  0.71204750    -0.08200
C1431       C  0.20062423  0.40233412  0.68270849     0.05320
C1432       C  0.16797269  0.41218814  0.68179277    -0.03230
Br1433     Br  0.14930182  0.43077859  0.64414669    -0.02920
H1434       H  0.12227470  0.41351536  0.70722507     0.09240
H1435       H  0.23693325  0.38223913  0.71460616     0.07250
Br1436     Br  0.21059588  0.36629978  0.77668688    -0.03350
C1437       C  0.28245721  0.51738874  0.96610607    -0.09990
C1438       C  0.25551641  0.50897290  0.94711847     0.06210
C1439       C  0.23036180  0.49142840  0.96168788    -0.03750
C1440       C  0.23080264  0.48623768  0.99523112    -0.08200
C1441       C  0.25557981  0.49903926  0.01477292     0.05320
C1442       C  0.28258262  0.51259325  0.99947832    -0.03230
Br1443     Br  0.31772714  0.52954301  0.02408336    -0.02920
H1444       H  0.30278742  0.52985369  0.95525760     0.09240
H1445       H  0.20942151  0.47617585  0.00661927     0.07250
Br1446     Br  0.19277681  0.47876895  0.93812829    -0.03350
C1447       C  0.30437766  0.51445952  0.72375812    -0.09990
C1448       C  0.31644838  0.49981762  0.75099904     0.06210
C1449       C  0.33190968  0.47006744  0.74936442    -0.03750
C1450       C  0.33160909  0.45322969  0.72033779    -0.08200
C1451       C  0.31429797  0.46554622  0.69422904     0.05320
C1452       C  0.30198025  0.49735599  0.69552367    -0.03230
Br1453     Br  0.27548116  0.51768300  0.66341917    -0.02920
H1454       H  0.29280886  0.53776536  0.72563371     0.09240
H1455       H  0.34132336  0.42911457  0.71952021     0.07250
Br1456     Br  0.35044762  0.45074214  0.78671349    -0.03350
C1457       C  0.19422844  0.53546339  0.74804141    -0.09990
C1458       C  0.19847346  0.55626322  0.77472480     0.06210
C1459       C  0.18006611  0.58450565  0.77589520    -0.03750
C1460       C  0.15898814  0.59204719  0.75069367    -0.08200
C1461       C  0.15540323  0.57213385  0.72313727     0.05320
C1462       C  0.17269410  0.54289103  0.72268505    -0.03230
Br1463     Br  0.16975028  0.51347098  0.68722795    -0.02920
H1464       H  0.20868985  0.51386904  0.74627428     0.09240
H1465       H  0.14558096  0.61429413  0.75257867     0.07250
Br1466     Br  0.18421306  0.61453051  0.81084658    -0.03350
C1467       C  0.47698701  0.70672506  0.00621330    -0.09990
C1468       C  0.46891483  0.73862880  0.01106070     0.06210
C1469       C  0.49337787  0.76259237  0.00790346    -0.03750
C1470       C  0.52577533  0.75376757  0.00703474    -0.08200
C1471       C  0.53401716  0.72152425  0.00775045     0.05320
C1472       C  0.50921929  0.69791023  0.00383228    -0.03230
Br1473     Br  0.51644374  0.65258751  0.99812406    -0.02920
H1474       H  0.45842115  0.68836565  0.00647099     0.09240
H1475       H  0.54435089  0.77207451  0.00812405     0.07250
Br1476     Br  0.48501325  0.80788022  0.00568469    -0.03350
C1477       C  0.30423488  0.65462896  0.06542767    -0.09990
C1478       C  0.29452043  0.68402384  0.05269958     0.06210
C1479       C  0.26187812  0.68741163  0.04295749    -0.03750
C1480       C  0.23937112  0.66261312  0.04811150    -0.08200
C1481       C  0.24861891  0.63420167  0.06318690     0.05320
C1482       C  0.28167399  0.63003939  0.07093977    -0.03230
Br1483     Br  0.29721976  0.59151170  0.09050158    -0.02920
H1484       H  0.32908633  0.65135407  0.07272161     0.09240
H1485       H  0.21424393  0.66632984  0.04204703     0.07250
Br1486     Br  0.24631629  0.72547889  0.02262589    -0.03350
C1487       C  0.42157289  0.72903242  0.14881393    -0.09990
C1488       C  0.38927944  0.73591932  0.14103678     0.06210
C1489       C  0.36489276  0.71500855  0.15371262    -0.03750
C1490       C  0.37314172  0.68909379  0.17324106    -0.08200
C1491       C  0.40516802  0.68247351  0.18130237     0.05320
C1492       C  0.42965309  0.70297005  0.16876411    -0.03230
Br1493     Br  0.47450840  0.69826667  0.17923678    -0.02920
H1494       H  0.44080796  0.74403860  0.13938683     0.09240
H1495       H  0.35395128  0.67396633  0.18258918     0.07250
Br1496     Br  0.31914393  0.71838546  0.14591856    -0.03350
C1497       C  0.01522141  0.72013810  0.94559588    -0.09990
C1498       C  0.02612268  0.74455835  0.92540434     0.06210
C1499       C  0.00332826  0.76718241  0.91342174    -0.03750
C1500       C  0.97052490  0.76338045  0.91958057    -0.08200
C1501       C  0.95957469  0.73770592  0.93769917     0.05320
C1502       C  0.98223823  0.71700713  0.95230522    -0.03230
Br1503     Br  0.96871594  0.68245433  0.97969147    -0.02920
H1504       H  0.03230928  0.70411963  0.95682690     0.09240
H1505       H  0.95339126  0.77907091  0.90798696     0.07250
Br1506     Br  0.01440480  0.80419778  0.88797517    -0.03350
C1507       C  0.20562465  0.66939692  0.90044136    -0.09990
C1508       C  0.19817392  0.69029791  0.87469025     0.06210
C1509       C  0.21936652  0.68967559  0.84760564    -0.03750
C1510       C  0.24600130  0.66883673  0.84668686    -0.08200
C1511       C  0.25276782  0.64716144  0.87173451     0.05320
C1512       C  0.23226922  0.64809852  0.89915585    -0.03230
Br1513     Br  0.23845829  0.61996354  0.93496375    -0.02920
H1514       H  0.19076373  0.66969437  0.92207715     0.09240
H1515       H  0.26096126  0.66858512  0.82508618     0.07250
Br1516     Br  0.21369913  0.71561149  0.80991751    -0.03350
C1517       C  0.11715764  0.73593986  0.78851449    -0.09990
C1518       C  0.09130711  0.74646126  0.80847286     0.06210
C1519       C  0.06174534  0.72930770  0.80598350    -0.03750
C1520       C  0.05872466  0.70345267  0.78389600    -0.08200
C1521       C  0.08463843  0.69361499  0.76384535     0.05320
C1522       C  0.11422873  0.71011661  0.76690883    -0.03230
Br1523     Br  0.15253630  0.69739641  0.74367153    -0.02920
H1524       H  0.14060232  0.74737313  0.79007473     0.09240
H1525       H  0.03561103  0.69140888  0.78188335     0.07250
Br1526     Br  0.02419101  0.73975972  0.83113081    -0.03350
C1527       C  0.28218664  0.78091380  0.95297483    -0.09990
C1528       C  0.27906347  0.79524432  0.98360817     0.06210
C1529       C  0.25050594  0.81186453  0.99212096    -0.03750
C1530       C  0.22414967  0.80908716  0.97201555    -0.08200
C1531       C  0.22646098  0.79041003  0.94410661     0.05320
C1532       C  0.25589249  0.77797139  0.93331921    -0.03230
Br1533     Br  0.26030471  0.75190965  0.89511275    -0.02920
H1534       H  0.30389396  0.76831096  0.94571422     0.09240
H1535       H  0.20130080  0.81988968  0.97902139     0.07250
Br1536     Br  0.24389957  0.83534505  0.03167108    -0.03350
C1537       C  0.86855306  0.83523354  0.52001914    -0.09990
C1538       C  0.89460862  0.81916126  0.50491907     0.06210
C1539       C  0.92211585  0.81215996  0.52337719    -0.03750
C1540       C  0.92285323  0.82038922  0.55605573    -0.08200
C1541       C  0.89627153  0.83491759  0.57125902     0.05320
C1542       C  0.86917232  0.84301999  0.55295992    -0.03230
Br1543     Br  0.83275851  0.86444180  0.57208126    -0.02920
H1544       H  0.84720133  0.84086341  0.50630896     0.09240
H1545       H  0.94408166  0.81459385  0.57000198     0.07250
Br1546     Br  0.95808223  0.78852161  0.50682641    -0.03350
C1547       C  0.84747953  0.89692157  0.34379314    -0.09990
C1548       C  0.86417906  0.88659554  0.37098254     0.06210
C1549       C  0.87211970  0.90954314  0.39508189    -0.03750
C1550       C  0.86166260  0.94146111  0.39217118    -0.08200
C1551       C  0.84241170  0.95092423  0.36622610     0.05320
C1552       C  0.83631537  0.92826635  0.34129031    -0.03230
Br1553     Br  0.81145520  0.93698562  0.30336437    -0.02920
H1554       H  0.84164562  0.88000595  0.32477309     0.09240
H1555       H  0.86669094  0.95831815  0.41144340     0.07250
Br1556     Br  0.89376416  0.89866081  0.43433428    -0.03350
C1557       C  0.60137518  0.84867524  0.43922790    -0.09990
C1558       C  0.59329624  0.81676768  0.44667333     0.06210
C1559       C  0.58783485  0.79518122  0.42094375    -0.03750
C1560       C  0.59147109  0.80500989  0.38895830    -0.08200
C1561       C  0.60013655  0.83659619  0.38125883     0.05320
C1562       C  0.60427260  0.85882149  0.40686092    -0.03230
Br1563     Br  0.61633131  0.90251753  0.39902765    -0.02920
H1564       H  0.60700285  0.86532051  0.45853207     0.09240
H1565       H  0.58699270  0.78776115  0.36985486     0.07250
Br1566     Br  0.57651918  0.75118254  0.42813894    -0.03350
C1567       C  0.77762987  0.81205771  0.48595041    -0.09990
C1568       C  0.77127622  0.81045851  0.45287905     0.06210
C1569       C  0.73958848  0.81300201  0.44152177    -0.03750
C1570       C  0.71430061  0.81220187  0.46369004    -0.08200
C1571       C  0.72079354  0.80879076  0.49658138     0.05320
C1572       C  0.75241895  0.81114973  0.50808792    -0.03230
Br1573     Br  0.76272287  0.80598309  0.55282884    -0.02920
H1574       H  0.80211774  0.80965477  0.49452616     0.09240
H1575       H  0.68968049  0.81063929  0.45507759     0.07250
Br1576     Br  0.72947507  0.81061589  0.39648062    -0.03350
C1577       C  0.61908774  0.90847221  0.59947919    -0.09990
C1578       C  0.63261757  0.88860903  0.57553845     0.06210
C1579       C  0.65180762  0.90294613  0.55117757    -0.03750
C1580       C  0.65966546  0.93575434  0.55276987    -0.08200
C1581       C  0.64784613  0.95527195  0.57786749     0.05320
C1582       C  0.62618964  0.94152406  0.60048213    -0.03230
Br1583     Br  0.60468637  0.96730954  0.63234581    -0.02920
H1584       H  0.60310485  0.89825897  0.61754958     0.09240
H1585       H  0.67634681  0.94570238  0.53515787     0.07250
Br1586     Br  0.66836973  0.87861125  0.51538424    -0.03350
C1587       C  0.55401487  0.87216567  0.78825093    -0.09990
C1588       C  0.52912444  0.88054651  0.81028578     0.06210
C1589       C  0.53774886  0.88790538  0.84229160    -0.03750
C1590       C  0.57044081  0.88672204  0.85125767    -0.08200
C1591       C  0.59488881  0.87724907  0.82918449     0.05320
C1592       C  0.58605943  0.86942215  0.79746212    -0.03230
Br1593     Br  0.61604868  0.85552909  0.76461520    -0.02920
H1594       H  0.54857424  0.86663246  0.76333110     0.09240
H1595       H  0.57678908  0.89315095  0.87574381     0.07250
Br1596     Br  0.50644441  0.89862160  0.87495924    -0.03350
C1597       C  0.40867029  0.86099403  0.90774251    -0.09990
C1598       C  0.38723374  0.84623402  0.88559097     0.06210
C1599       C  0.36431129  0.82444709  0.89802459    -0.03750
C1600       C  0.36513941  0.81593567  0.93051827    -0.08200
C1601       C  0.38833824  0.82817614  0.95208907     0.05320
C1602       C  0.40921320  0.85235785  0.94067362    -0.03230
Br1603     Br  0.43984124  0.87306160  0.96813873    -0.02920
H1604       H  0.42618373  0.87838053  0.89922572     0.09240
H1605       H  0.34806371  0.79826196  0.93875233     0.07250
Br1606     Br  0.33145065  0.80429821  0.87241256    -0.03350
C1607       C  0.43928768  0.57476707  0.78820586    -0.09990
C1608       C  0.46473972  0.57275085  0.81033357     0.06210
C1609       C  0.45672351  0.57075910  0.84337115    -0.03750
C1610       C  0.42389929  0.57165038  0.85346260    -0.08200
C1611       C  0.39852856  0.57583895  0.83116864     0.05320
C1612       C  0.40696555  0.57701778  0.79801518    -0.03230
Br1613     Br  0.37628651  0.58196600  0.76388570    -0.02920
H1614       H  0.44481415  0.57651848  0.76265780     0.09240
H1615       H  0.41829548  0.57017386  0.87897653     0.07250
Br1616     Br  0.48971194  0.56932798  0.87541392    -0.03350
C1617       C  0.60486886  0.71524669  0.69565199    -0.09990
C1618       C  0.58141908  0.69150487  0.68880940     0.06210
C1619       C  0.56366428  0.69503524  0.65991884    -0.03750
C1620       C  0.57003582  0.72109992  0.63896215    -0.08200
C1621       C  0.59396639  0.74422414  0.64589697     0.05320
C1622       C  0.61111434  0.74100545  0.67486952    -0.03230
Br1623     Br  0.64327006  0.77170123  0.68761836    -0.02920
H1624       H  0.61880593  0.71394242  0.71757907     0.09240
H1625       H  0.55707786  0.72254251  0.61643918     0.07250
Br1626     Br  0.53034924  0.66552322  0.64757029    -0.03350
C1627       C  0.52381613  0.73194114  0.81255897    -0.09990
C1628       C  0.50917736  0.70271785  0.80481155     0.06210
C1629       C  0.47531426  0.70027085  0.80338958    -0.03750
C1630       C  0.45698665  0.72796229  0.80464774    -0.08200
C1631       C  0.47235193  0.75768954  0.80646257     0.05320
C1632       C  0.50547833  0.75969955  0.81301444    -0.03230
Br1633     Br  0.52706938  0.79962896  0.81974571    -0.02920
H1634       H  0.54986029  0.73374755  0.81460201     0.09240
H1635       H  0.43121233  0.72646069  0.80033748     0.07250
Br1636     Br  0.45289992  0.66068897  0.79652962    -0.03350
C1637       C  0.61840600  0.59948403  0.90408155    -0.09990
C1638       C  0.59460139  0.61415369  0.88515464     0.06210
C1639       C  0.57146656  0.63384785  0.90042388    -0.03750
C1640       C  0.57381952  0.64072129  0.93326250    -0.08200
C1641       C  0.59819247  0.62733066  0.95223017     0.05320
C1642       C  0.62026597  0.60591775  0.93749195    -0.03230
Br1643     Br  0.65479344  0.58736869  0.96154129    -0.02920
H1644       H  0.63615116  0.58390647  0.89273917     0.09240
H1645       H  0.55755549  0.65835295  0.94359470     0.07250
Br1646     Br  0.53651602  0.65297441  0.87739415    -0.03350
C1647       C  0.86346951  0.52339415  0.86248007    -0.09990
C1648       C  0.83037197  0.51694636  0.86639639     0.06210
C1649       C  0.80844525  0.54318093  0.86741870    -0.03750
C1650       C  0.81961796  0.57444723  0.86349367    -0.08200
C1651       C  0.85251520  0.58092822  0.85981130     0.05320
C1652       C  0.87464749  0.55512687  0.85955503    -0.03230
Br1653     Br  0.92019940  0.56208399  0.85433738    -0.02920
H1654       H  0.88058197  0.50377992  0.86112774     0.09240
H1655       H  0.80253696  0.59409000  0.86530966     0.07250
Br1656     Br  0.76286652  0.53896083  0.87644588    -0.03350
C1657       C  0.92545841  0.39132796  0.85297921    -0.09990
C1658       C  0.90241583  0.37200776  0.83690617     0.06210
C1659       C  0.91391066  0.34999609  0.81338175    -0.03750
C1660       C  0.94674604  0.34970028  0.80485109    -0.08200
C1661       C  0.96919148  0.37054453  0.81935038     0.05320
C1662       C  0.95841537  0.39077329  0.84442788    -0.03230
Br1663     Br  0.98683433  0.42061029  0.86522456    -0.02920
H1664       H  0.91767993  0.40835138  0.87127485     0.09240
H1665       H  0.95466763  0.33370686  0.78566896     0.07250
Br1666     Br  0.88664716  0.32004540  0.79100039    -0.03350
C1667       C  0.81736306  0.39159670  0.57553751    -0.09990
C1668       C  0.84875604  0.38611705  0.58643643     0.06210
C1669       C  0.86920955  0.41268577  0.59182887    -0.03750
C1670       C  0.85758373  0.44411549  0.58759440    -0.08200
C1671       C  0.82588719  0.44958260  0.57693770     0.05320
C1672       C  0.80608031  0.42264361  0.57009968    -0.03230
Br1673     Br  0.76408981  0.42611180  0.55083513    -0.02920
H1674       H  0.80196999  0.37145675  0.56949163     0.09240
H1675       H  0.87312226  0.46425780  0.59326917     0.07250
Br1676     Br  0.91284034  0.40700177  0.60577311    -0.03350
C1677       C  0.73411302  0.69954183  0.57416982    -0.09990
C1678       C  0.70475713  0.69135255  0.55892023     0.06210
C1679       C  0.70231753  0.66002854  0.54554889    -0.03750
C1680       C  0.72802020  0.63799617  0.54879855    -0.08200
C1681       C  0.75655703  0.64617378  0.56525162     0.05320
C1682       C  0.75945822  0.67756417  0.57744009    -0.03230
Br1683     Br  0.79786980  0.69170517  0.59890021    -0.02920
H1684       H  0.73764970  0.72339280  0.58398406     0.09240
H1685       H  0.72490475  0.61368835  0.53997135     0.07250
Br1686     Br  0.66440765  0.64493612  0.52384245    -0.03350
C1687       C  0.68051858  0.54961313  0.69160968    -0.09990
C1688       C  0.69415515  0.57498480  0.67386199     0.06210
C1689       C  0.68970156  0.60646660  0.68538208    -0.03750
C1690       C  0.67289882  0.61205653  0.71424742    -0.08200
C1691       C  0.65936566  0.58685607  0.73268257     0.05320
C1692       C  0.66328293  0.55514312  0.72061726    -0.03230
Br1693     Br  0.64651148  0.51801496  0.74213378    -0.02920
H1694       H  0.68462906  0.52513912  0.68369829     0.09240
H1695       H  0.67002538  0.63677248  0.72189003     0.07250
Br1696     Br  0.70589930  0.64303370  0.66221859    -0.03350
C1697       C  0.82260877  0.49799180  0.71440493    -0.09990
C1698       C  0.79487840  0.49412797  0.69539747     0.06210
C1699       C  0.77375323  0.46790502  0.70095347    -0.03750
C1700       C  0.78123477  0.44604292  0.72431454    -0.08200
C1701       C  0.80688599  0.45156316  0.74494530     0.05320
C1702       C  0.82821200  0.47717304  0.73993134    -0.03230
Br1703     Br  0.86315841  0.48567686  0.76880191    -0.02920
H1704       H  0.83906434  0.51781488  0.71031174     0.09240
H1705       H  0.76421816  0.42694622  0.72937272     0.07250
Br1706     Br  0.73146859  0.46223643  0.68228841    -0.03350
C1707       C  0.90473702  0.59077191  0.64935027    -0.09990
C1708       C  0.89765984  0.58307168  0.61726778     0.06210
C1709       C  0.92397934  0.57611093  0.59606002    -0.03750
C1710       C  0.95607245  0.57708033  0.60746052    -0.08200
C1711       C  0.96271693  0.58483124  0.63975814     0.05320
C1712       C  0.93613416  0.59135235  0.66078744    -0.03230
Br1713     Br  0.93926912  0.60020924  0.70643996    -0.02920
H1714       H  0.88543954  0.59583244  0.66646405     0.09240
H1715       H  0.97589251  0.57231880  0.59086741     0.07250
Br1716     Br  0.91834938  0.56520877  0.55144971    -0.03350
C1717       C  0.92601806  0.07807006  0.35191968    -0.09990
C1718       C  0.90059532  0.08426349  0.33017660     0.06210
C1719       C  0.90819136  0.08493550  0.29691890    -0.03750
C1720       C  0.93989158  0.07954596  0.28637995    -0.08200
C1721       C  0.96559286  0.07542601  0.30802427     0.05320
C1722       C  0.95829138  0.07433824  0.34119179    -0.03230
Br1723     Br  0.99163762  0.06993041  0.37260017    -0.02920
H1724       H  0.92086443  0.07669034  0.37753404     0.09240
H1725       H  0.94494003  0.08080132  0.26070925     0.07250
Br1726     Br  0.87709849  0.09338100  0.26391225    -0.03350
C1727       C  0.07076030  0.14587554  0.39329665    -0.09990
C1728       C  0.08925530  0.11935983  0.38376495     0.06210
C1729       C  0.10391733  0.10045632  0.40760794    -0.03750
C1730       C  0.10163257  0.10969213  0.44031678    -0.08200
C1731       C  0.08429728  0.13730043  0.44965734     0.05320
C1732       C  0.06814259  0.15481464  0.42569677    -0.03230
Br1733     Br  0.04449530  0.19313235  0.43556738    -0.02920
H1734       H  0.05876120  0.16020790  0.37526649     0.09240
H1735       H  0.11526498  0.09663795  0.45810051     0.07250
Br1736     Br  0.12978842  0.06396114  0.39620651    -0.03350
C1737       C  0.04997589  0.38510215  0.28049443    -0.09990
C1738       C  0.02563476  0.38614823  0.30432384     0.06210
C1739       C  0.03461981  0.38583401  0.33690093    -0.03750
C1740       C  0.06752737  0.38394296  0.34495521    -0.08200
C1741       C  0.09183424  0.38127853  0.32089881     0.05320
C1742       C  0.08250072  0.38209277  0.28826903    -0.03230
Br1743     Br  0.11231211  0.37947343  0.25256991    -0.02920
H1744       H  0.04337264  0.38486918  0.25524347     0.09240
H1745       H  0.07408126  0.38385984  0.37018097     0.07250
Br1746     Br  0.00288435  0.38524457  0.37081503    -0.03350
C1747       C  0.95720415  0.22744038  0.29844598    -0.09990
C1748       C  0.97192364  0.25743843  0.30017743     0.06210
C1749       C  0.00527375  0.26002218  0.30577945    -0.03750
C1750       C  0.02412043  0.23253855  0.30511747    -0.08200
C1751       C  0.00995553  0.20297451  0.29780529     0.05320
C1752       C  0.97609172  0.20009619  0.29671911    -0.03230
Br1753     Br  0.95416464  0.16033759  0.29033827    -0.02920
H1754       H  0.93136764  0.22548628  0.29467210     0.09240
H1755       H  0.05014472  0.23476241  0.30695496     0.07250
Br1756     Br  0.02663235  0.30031014  0.31154307    -0.03350
C1757       C  0.89620366  0.36467034  0.40370209    -0.09990
C1758       C  0.89157677  0.34146848  0.37917001     0.06210
C1759       C  0.88650606  0.30930261  0.38820395    -0.03750
C1760       C  0.88578867  0.30112506  0.42057382    -0.08200
C1761       C  0.88901440  0.32415843  0.44524671     0.05320
C1762       C  0.89458263  0.35630539  0.43661158    -0.03230
Br1763     Br  0.89805564  0.38954288  0.46846407    -0.02920
H1764       H  0.90043406  0.38947527  0.39727980     0.09240
H1765       H  0.88230188  0.27606336  0.42651440     0.07250
Br1766     Br  0.88157125  0.27432019  0.35823854    -0.03350
C1767       C  0.07686239  0.28836612  0.91705171    -0.09990
C1768       C  0.08443309  0.31071979  0.94121489     0.06210
C1769       C  0.09341525  0.34192343  0.93238060    -0.03750
C1770       C  0.09642810  0.34976574  0.89964257    -0.08200
C1771       C  0.09108496  0.32665686  0.87521017     0.05320
C1772       C  0.08018700  0.29577876  0.88442812    -0.03230
Br1773     Br  0.06997825  0.26176409  0.85462050    -0.02920
H1774       H  0.07042526  0.26405493  0.92372968     0.09240
H1775       H  0.10408698  0.37380253  0.89338965     0.07250
Br1776     Br  0.10469798  0.37344786  0.96417571    -0.03350
C1777       C  0.08437080  0.17701460  0.15221198    -0.09990
C1778       C  0.08174912  0.18689704  0.18455622     0.06210
C1779       C  0.08325553  0.22047030  0.19125807    -0.03750
C1780       C  0.08882006  0.24263591  0.16637809    -0.08200
C1781       C  0.09295851  0.23244200  0.13447747     0.05320
C1782       C  0.09027109  0.19931780  0.12748434    -0.03230
Br1783     Br  0.09551112  0.18330235  0.08434122    -0.02920
H1784       H  0.08295817  0.15174295  0.14619700     0.09240
H1785       H  0.09104287  0.26790836  0.17217605     0.07250
Br1786     Br  0.07736289  0.23853070  0.23363038    -0.03350
C1787       C  0.17850708  0.41783930  0.08790100    -0.09990
C1788       C  0.16060892  0.44286692  0.07391002     0.06210
C1789       C  0.13160346  0.43468918  0.05830926    -0.03750
C1790       C  0.12091537  0.40237681  0.05792143    -0.08200
C1791       C  0.13856380  0.37756777  0.07305739     0.05320
C1792       C  0.16801455  0.38603472  0.08790923    -0.03230
Br1793     Br  0.19649563  0.35605862  0.10838912    -0.02920
H1794       H  0.20131724  0.42304593  0.09946776     0.09240
H1795       H  0.09851820  0.39672188  0.04583176     0.07250
Br1796     Br  0.10523988  0.46660704  0.03850267    -0.03350
C1797       C  0.40221846  0.34909203  0.01687238    -0.09990
C1798       C  0.40187666  0.31604652  0.01060190     0.06210
C1799       C  0.40016267  0.29454992  0.03670741    -0.03750
C1800       C  0.39708054  0.30601587  0.06801793    -0.08200
C1801       C  0.39657079  0.33900568  0.07481025     0.05320
C1802       C  0.39998102  0.36077615  0.04873311    -0.03230
Br1803     Br  0.40057840  0.40649579  0.05437891    -0.02920
H1804       H  0.40279753  0.36580912  0.99696973     0.09240
H1805       H  0.39590798  0.28861793  0.08730196     0.07250
Br1806     Br  0.40146532  0.24869108  0.03122407    -0.03350
C1807       C  0.24311247  0.30810108  0.93626500    -0.09990
C1808       C  0.27223673  0.30919302  0.95294370     0.06210
C1809       C  0.27249568  0.31577447  0.98617071    -0.03750
C1810       C  0.24350757  0.31564644  0.00321522    -0.08200
C1811       C  0.21488153  0.30781796  0.98728180     0.05320
C1812       C  0.21419223  0.30708384  0.95335088    -0.03230
Br1813     Br  0.17527139  0.30099385  0.92935630    -0.02920
H1814       H  0.24297179  0.30401841  0.91041924     0.09240
H1815       H  0.24403447  0.31726618  0.02930516     0.07250
Br1816     Br  0.31170666  0.32120030  0.00977663    -0.03350
C1817       C  0.37578048  0.40888403  0.88925432    -0.09990
C1818       C  0.35562127  0.38314637  0.87939171     0.06210
C1819       C  0.32315178  0.39032333  0.87212195    -0.03750
C1820       C  0.31189364  0.42174705  0.87458281    -0.08200
C1821       C  0.33216049  0.44781860  0.88245446     0.05320
C1822       C  0.36450143  0.44100791  0.89025510    -0.03230
Br1823     Br  0.39435224  0.47463219  0.90039781    -0.02920
H1824       H  0.40068234  0.40413964  0.89545353     0.09240
H1825       H  0.28674972  0.42601076  0.86886950     0.07250
Br1826     Br  0.29178762  0.35899610  0.85869547    -0.03350
C1827       C  0.31743057  0.89528910  0.07537833    -0.09990
C1828       C  0.34748525  0.88557971  0.08695360     0.06210
C1829       C  0.37046526  0.90931761  0.09545804    -0.03750
C1830       C  0.36290242  0.94201507  0.09211914    -0.08200
C1831       C  0.33265103  0.95140895  0.08051613     0.05320
C1832       C  0.30985926  0.92750592  0.07216425    -0.03230
Br1833     Br  0.26712362  0.93690835  0.05691094    -0.02920
H1834       H  0.29971398  0.87762941  0.06797005     0.09240
H1835       H  0.37997445  0.96003722  0.10010933     0.07250
Br1836     Br  0.41134937  0.89864934  0.11400290    -0.03350
C1837       C  0.26329046  0.17060931  0.04755983    -0.09990
C1838       C  0.25494512  0.14074721  0.06044530     0.06210
C1839       C  0.22168097  0.13283917  0.06301906    -0.03750
C1840       C  0.19768185  0.15520434  0.05510296    -0.08200
C1841       C  0.20599583  0.18599260  0.04465857     0.05320
C1842       C  0.23924877  0.19301268  0.03953216    -0.03230
Br1843     Br  0.25338196  0.23280904  0.02129792    -0.02920
H1844       H  0.28854311  0.17713220  0.04507527     0.09240
H1845       H  0.17246976  0.14904381  0.05878257     0.07250
Br1846     Br  0.20743280  0.09198882  0.07835382    -0.03350
C1847       C  0.16210096  0.05734556  0.22097612    -0.09990
C1848       C  0.16724507  0.08336502  0.24216858     0.06210
C1849       C  0.19425286  0.10319893  0.23656992    -0.03750
C1850       C  0.21438539  0.09791085  0.20979664    -0.08200
C1851       C  0.20884804  0.07271920  0.18762116     0.05320
C1852       C  0.18253157  0.05180185  0.19403673    -0.03230
Br1853     Br  0.17316320  0.01509219  0.16759088    -0.02920
H1854       H  0.14119341  0.04205013  0.22450922     0.09240
H1855       H  0.23470330  0.11398771  0.20641481     0.07250
Br1856     Br  0.20511674  0.13796179  0.26507453    -0.03350
C1857       C  0.41064558  0.10954481  0.14634128    -0.09990
C1858       C  0.40390467  0.09634758  0.11604517     0.06210
C1859       C  0.43028432  0.08515632  0.09693636    -0.03750
C1860       C  0.46195278  0.08571124  0.10915666    -0.08200
C1861       C  0.46830085  0.09687066  0.14048815     0.05320
C1862       C  0.44193293  0.10974267  0.15878642    -0.03230
Br1863     Br  0.44527336  0.12753556  0.20164702    -0.02920
H1864       H  0.39104113  0.11839192  0.16144069     0.09240
H1865       H  0.48153828  0.07628377  0.09441127     0.07250
Br1866     Br  0.42508713  0.06876145  0.05392852    -0.03350
C1867       C  0.35529605  0.02099937  0.34561153    -0.09990
C1868       C  0.34172233  0.00747059  0.37377648     0.06210
C1869       C  0.34007903  0.02638577  0.40196065    -0.03750
C1870       C  0.34947955  0.05865929  0.40087432    -0.08200
C1871       C  0.36013645  0.07265128  0.37194278     0.05320
C1872       C  0.36411194  0.05339146  0.34443147    -0.03230
Br1873     Br  0.37948980  0.07085590  0.30448396    -0.02920
H1874       H  0.35677481  0.00682860  0.32366285     0.09240
H1875       H  0.34673224  0.07341770  0.42233442     0.07250
Br1876     Br  0.32168591  0.01093122  0.44135440    -0.03350
C1877       C  0.32137943  0.00248956  0.25754117    -0.09990
C1878       C  0.32472740  0.96952008  0.25135066     0.06210
C1879       C  0.33417893  0.95878826  0.22049287    -0.03750
C1880       C  0.33462229  0.98064684  0.19524696    -0.08200
C1881       C  0.32590934  0.01269553  0.20079721     0.05320
C1882       C  0.32164541  0.02422131  0.23233682    -0.03230
Br1883     Br  0.30895075  0.06765841  0.24143280    -0.02920
H1884       H  0.31449839  0.01088950  0.28141759     0.09240
H1885       H  0.33814572  0.97194436  0.17076963     0.07250
Br1886     Br  0.34061968  0.91429694  0.21016427    -0.03350
C1887       C  0.44336417  0.85204629  0.30408854    -0.09990
C1888       C  0.46578524  0.87507475  0.31499651     0.06210
C1889       C  0.45483272  0.89816658  0.33760350    -0.03750
C1890       C  0.42199855  0.89860261  0.34729879    -0.08200
C1891       C  0.39941397  0.87632120  0.33491077     0.05320
C1892       C  0.41098736  0.85222747  0.31381250    -0.03230
Br1893     Br  0.38416078  0.81857705  0.29686445    -0.02920
H1894       H  0.45079532  0.83392283  0.28685995     0.09240
H1895       H  0.41382354  0.91750321  0.36342647     0.07250
Br1896     Br  0.48253872  0.93134060  0.35374105    -0.03350
C1897       C  0.01450727  0.00037059  0.21509094    -0.09990
C1898       C  0.03681026  0.01268563  0.23701930     0.06210
C1899       C  0.05026583  0.99130016  0.26011911    -0.03750
C1900       C  0.04568584  0.95819196  0.25717744    -0.08200
C1901       C  0.02741701  0.94571897  0.23209029     0.05320
C1902       C  0.00949463  0.96719666  0.21275078    -0.03230
Br1903     Br  0.98157011  0.95200599  0.17927071    -0.02920
H1904       H  0.00271725  0.01619769  0.19825675     0.09240
H1905       H  0.05927368  0.94213059  0.27239552     0.07250
Br1906     Br  0.07633920  0.00451951  0.29595994    -0.03350
C1907       C  0.93950573  0.87047743  0.16300692    -0.09990
C1908       C  0.96396870  0.87522923  0.13962254     0.06210
C1909       C  0.95468815  0.87989201  0.10740915    -0.03750
C1910       C  0.92170538  0.87994308  0.09951103    -0.08200
C1911       C  0.89728877  0.87538088  0.12316343     0.05320
C1912       C  0.90687052  0.87024451  0.15533317    -0.03230
Br1913     Br  0.87765737  0.86347698  0.19109027    -0.02920
H1914       H  0.94567441  0.86708824  0.18808915     0.09240
H1915       H  0.91519549  0.88405797  0.07464343     0.07250
Br1916     Br  0.98549028  0.88541051  0.07310232    -0.03350
C1917       C  0.15015413  0.91452198  0.23961106    -0.09990
C1918       C  0.16027840  0.90066170  0.21014916     0.06210
C1919       C  0.19294861  0.89252627  0.20629020    -0.03750
C1920       C  0.21444346  0.89679451  0.23171632    -0.08200
C1921       C  0.20438705  0.90879288  0.26217374     0.05320
C1922       C  0.17178111  0.91871157  0.26549985    -0.03230
Br1923     Br  0.15454572  0.93599993  0.30497533    -0.02920
H1924       H  0.12479094  0.92004710  0.24331559     0.09240
H1925       H  0.23931798  0.88975805  0.22750229     0.07250
Br1926     Br  0.20898764  0.87348381  0.16703653    -0.03350
C1927       C  0.12973208  0.82273554  0.05649971    -0.09990
C1928       C  0.11130551  0.84957440  0.06539435     0.06210
C1929       C  0.09713088  0.86774185  0.04018570    -0.03750
C1930       C  0.09938207  0.85721297  0.00780678    -0.08200
C1931       C  0.11558224  0.82875388  0.99949010     0.05320
C1932       C  0.13200501  0.81225876  0.02446844    -0.03230
Br1933     Br  0.15772718  0.77434785  0.01783535    -0.02920
H1934       H  0.14153158  0.80868507  0.07484834     0.09240
H1935       H  0.08707342  0.87059121  0.98928639     0.07250
Br1936     Br  0.07384610  0.90690871  0.04764407    -0.03350
C1937       C  0.97620624  0.45713435  0.20529251    -0.09990
C1938       C  0.95931600  0.44641286  0.23236929     0.06210
C1939       C  0.95121732  0.46887480  0.25726127    -0.03750
C1940       C  0.95591438  0.50156604  0.25247389    -0.08200
C1941       C  0.96811692  0.51240607  0.22327186     0.05320
C1942       C  0.98060061  0.48996805  0.20054466    -0.03230
Br1943     Br  0.00039671  0.50298456  0.16071454    -0.02920
H1944       H  0.98348863  0.44033345  0.18657253     0.09240
H1945       H  0.94666340  0.51858903  0.27012405     0.07250
Br1946     Br  0.93108787  0.45797030  0.29765896    -0.03350
C1947       C  0.07307857  0.56863232  0.09275375    -0.09990
C1948       C  0.09764332  0.58731857  0.10717020     0.06210
C1949       C  0.08848153  0.60882276  0.13206379    -0.03750
C1950       C  0.05664652  0.60923143  0.14329895    -0.08200
C1951       C  0.03239840  0.58930122  0.13056890     0.05320
C1952       C  0.04073913  0.56977110  0.10379547    -0.03230
Br1953     Br  0.00986652  0.54349975  0.08169211    -0.02920
H1954       H  0.07912329  0.55233127  0.07316437     0.09240
H1955       H  0.05100821  0.62526672  0.16308469     0.07250
Br1956     Br  0.11756802  0.63789710  0.15346363    -0.03350
C1957       C  0.98223662  0.72720332  0.14075125    -0.09990
C1958       C  0.99238152  0.70258314  0.16133733     0.05490
C1959       C  0.02422938  0.70318812  0.17388766    -0.03750
C1960       C  0.04424079  0.72864442  0.16664252    -0.08200
C1961       C  0.03212956  0.75502435  0.15050904     0.05320
C1962       C  0.00163399  0.75407437  0.13622355    -0.03230
Br1963     Br  0.98444277  0.79035429  0.11395617    -0.02920
H1964       H  0.95814492  0.72709853  0.13074273     0.09240
H1965       H  0.06766532  0.73013528  0.17815716     0.07250
Br1966     Br  0.04148664  0.67441839  0.20565088    -0.03350
C1967       C  0.87896970  0.66739389  0.02858356    -0.09990
C1968       C  0.88881099  0.64629798  0.00366412     0.06210
C1969       C  0.90009969  0.61566755  0.01228128    -0.03750
C1970       C  0.90183516  0.60730724  0.04506803    -0.08200
C1971       C  0.89250945  0.62895429  0.06982071     0.05320
C1972       C  0.88053518  0.65931683  0.06089519    -0.03230
Br1973     Br  0.86664296  0.69252825  0.09047754    -0.02920
H1974       H  0.87027351  0.69123593  0.02319994     0.09240
H1975       H  0.91116899  0.58388290  0.05117344     0.07250
Br1976     Br  0.91315863  0.58421177  0.98091612    -0.03350
C1977       C  0.93646006  0.69533099  0.29171525    -0.09990
C1978       C  0.91237625  0.68235774  0.27168662     0.06210
C1979       C  0.88179767  0.69729253  0.27178441    -0.03750
C1980       C  0.87614008  0.72479621  0.29013934    -0.08200
C1981       C  0.89978537  0.73813057  0.31039950     0.05320
C1982       C  0.93035171  0.72267204  0.31127760    -0.03230
Br1983     Br  0.96444889  0.73677622  0.33896816    -0.02920
H1984       H  0.96039663  0.68482875  0.29141445     0.09240
H1985       H  0.85225870  0.73535257  0.28906881     0.07250
Br1986     Br  0.84600026  0.68112708  0.24733601    -0.03350
C1987       C  0.76036440  0.49737243  0.48437954    -0.09990
C1988       C  0.73719798  0.51392968  0.50338145     0.06210
C1989       C  0.71139985  0.52902564  0.48828030    -0.03750
C1990       C  0.71219933  0.53213778  0.45487547    -0.08200
C1991       C  0.73887775  0.52106550  0.43638763     0.05320
C1992       C  0.76222061  0.50192775  0.45112246    -0.03230
Br1993     Br  0.79989793  0.48651058  0.42863061    -0.02920
H1994       H  0.78015539  0.48509193  0.49599834     0.09240
H1995       H  0.69306130  0.54568076  0.44364154     0.07250
Br1996     Br  0.67777545  0.55026705  0.51221148    -0.03350
C1997       C  0.63596377  0.44471397  0.37044319    -0.09990
C1998       C  0.66666120  0.45345271  0.38166737     0.06210
C1999       C  0.68811050  0.42903229  0.39085778    -0.03750
C2000       C  0.67931129  0.39688904  0.38811294    -0.08200
C2001       C  0.64912824  0.38775563  0.37590937     0.05320
C2002       C  0.62697728  0.41222808  0.36757721    -0.03230
Br2003     Br  0.58537784  0.40320484  0.34951828    -0.02920
H2004       H  0.61978534  0.46309153  0.36175202     0.09240
H2005       H  0.69650062  0.37886628  0.39557119     0.07250
Br2006     Br  0.73102088  0.43802163  0.40513088    -0.03350
C2007       C  0.81234752  0.54425893  0.25389309    -0.09990
C2008       C  0.79043477  0.56820922  0.26392544     0.06210
C2009       C  0.79118860  0.59788554  0.24779306    -0.03750
C2010       C  0.81267575  0.60292679  0.22214838    -0.08200
C2011       C  0.83537733  0.57958943  0.21230382     0.05320
C2012       C  0.83478768  0.54969204  0.22854640    -0.03230
Br2013     Br  0.86441251  0.51566756  0.21837513    -0.02920
H2014       H  0.81175767  0.52106362  0.26551402     0.09240
H2015       H  0.81234362  0.62614055  0.21058935     0.07250
Br2016     Br  0.76498228  0.63371383  0.26121355    -0.03350
C2017       C  0.75655604  0.70244316  0.37549699    -0.09990
C2018       C  0.78704796  0.69248763  0.38708088     0.06210
C2019       C  0.79156136  0.65935407  0.39265810    -0.03750
C2020       C  0.76660854  0.63745053  0.38547985    -0.08200
C2021       C  0.73684159  0.64772605  0.37298907     0.05320
C2022       C  0.73192742  0.68055169  0.36831607    -0.03230
Br2023     Br  0.69219772  0.69639892  0.35113006    -0.02920
H2024       H  0.75167516  0.72760731  0.37147748     0.09240
H2025       H  0.77096599  0.61203476  0.38848366     0.07250
Br2026     Br  0.83143267  0.64203986  0.40809935    -0.03350
C2027       C  0.56786596  0.57574965  0.35409220    -0.09990
C2028       C  0.59294697  0.58134673  0.33139238     0.06210
C2029       C  0.58416001  0.58670378  0.29906512    -0.03750
C2030       C  0.55179824  0.58648265  0.29026907    -0.08200
C2031       C  0.52634886  0.58104362  0.31251780     0.05320
C2032       C  0.53487487  0.57590190  0.34506678    -0.03230
Br2033     Br  0.50303037  0.56917982  0.37818337    -0.02920
H2034       H  0.57390066  0.57142285  0.37904681     0.09240
H2035       H  0.54684237  0.59060785  0.26504703     0.07250
Br2036     Br  0.61457542  0.59262234  0.26417887    -0.03350
C2037       C  0.71588295  0.43374677  0.95491756    -0.09990
C2038       C  0.74028616  0.45292730  0.94233951     0.06210
C2039       C  0.76007648  0.47064369  0.96382119    -0.03750
C2040       C  0.75810349  0.46542209  0.99708355    -0.08200
C2041       C  0.73707718  0.44218355  0.00931025     0.05320
C2042       C  0.71427339  0.42777527  0.98792776    -0.03230
Br2043     Br  0.68133501  0.39758505  0.00029666    -0.02920
H2044       H  0.70070951  0.42001015  0.93871736     0.09240
H2045       H  0.77494377  0.47744187  0.01295023     0.07250
Br2046     Br  0.79404261  0.49817286  0.94861310    -0.03350
C2047       C  0.68616648  0.52825860  0.05304303    -0.09990
C2048       C  0.66283895  0.50584697  0.06273343     0.06210
C2049       C  0.63268788  0.51708328  0.07378449    -0.03750
C2050       C  0.62719862  0.55023493  0.07720821    -0.08200
C2051       C  0.65167091  0.57283954  0.07013814     0.05320
C2052       C  0.68108846  0.56125500  0.05660770    -0.03230
Br2053     Br  0.71629080  0.58822547  0.04295336    -0.02920
H2054       H  0.70974015  0.51988823  0.04503096     0.09240
H2055       H  0.60404009  0.55821852  0.08660488     0.07250
Br2056     Br  0.59952105  0.48768840  0.08700437    -0.03350
C2057       C  0.77766621  0.40439073  0.21786475    -0.09990
C2058       C  0.78698281  0.40318400  0.18497627     0.06210
C2059       C  0.81946923  0.39612326  0.17742202    -0.03750
C2060       C  0.84104708  0.38839157  0.20220465    -0.08200
C2061       C  0.83118102  0.38802138  0.23482573     0.05320
C2062       C  0.79939698  0.39703589  0.24260236    -0.03230
Br2063     Br  0.78398540  0.39690586  0.28631811    -0.02920
H2064       H  0.75287894  0.41005349  0.22437677     0.09240
H2065       H  0.86547908  0.38124356  0.19583102     0.07250
Br2066     Br  0.83488326  0.39341326  0.13376412    -0.03350
C2067       C  0.66767192  0.44342193  0.22836878    -0.09990
C2068       C  0.66492900  0.45788377  0.19833316     0.06210
C2069       C  0.65897985  0.49093545  0.19609811    -0.03750
C2070       C  0.66089287  0.50985317  0.22361147    -0.08200
C2071       C  0.67009685  0.49602215  0.25272433     0.05320
C2072       C  0.67114328  0.46234892  0.25566336    -0.03230
Br2073     Br  0.68109727  0.44054024  0.29476607    -0.02920
H2074       H  0.67185288  0.41781547  0.23005846     0.09240
H2075       H  0.65930604  0.53568782  0.22132918     0.07250
Br2076     Br  0.65285183  0.51192940  0.15579394    -0.03350
C2077       C  0.59143747  0.37490433  0.14762683    -0.09990
C2078       C  0.59677880  0.37456153  0.11440626     0.06210
C2079       C  0.57009697  0.37552155  0.09349310    -0.03750
C2080       C  0.53855760  0.37593673  0.10637574    -0.08200
C2081       C  0.53324244  0.37617325  0.13994924     0.05320
C2082       C  0.56054805  0.37635444  0.16060076    -0.03230
Br2083     Br  0.55944926  0.38002144  0.20700391    -0.02920
H2084       H  0.61175367  0.37526270  0.16394842     0.09240
H2085       H  0.51822954  0.37570089  0.09011012     0.07250
Br2086     Br  0.57530613  0.37474878  0.04750789    -0.03350
C2087       C  0.01061949  0.25202278  0.99137786    -0.09990
C2088       C  0.02866226  0.22501775  0.00102786     0.06210
C2089       C  0.01238658  0.19645774  0.00782696    -0.03750
C2090       C  0.97866025  0.19648685  0.00942927    -0.08200
C2091       C  0.96066644  0.22477305  0.00430183     0.05320
C2092       C  0.97675792  0.25215052  0.99313318    -0.03230
Br2093     Br  0.95416230  0.29141972  0.98542073    -0.02920
H2094       H  0.02292897  0.27430343  0.98600296     0.09240
H2095       H  0.96669357  0.17497682  0.01786347     0.07250
Br2096     Br  0.03520147  0.15838121  0.01950291    -0.03350
C2097       C  0.90453194  0.12300274  0.93351324    -0.09990
C2098       C  0.89635596  0.15469735  0.94070285     0.06210
C2099       C  0.88746276  0.17540681  0.91530985    -0.03750
C2100       C  0.88545680  0.16388635  0.88383213    -0.08200
C2101       C  0.89271705  0.13192681  0.87644481     0.05320
C2102       C  0.90283227  0.11138588  0.90179067    -0.03230
Br2103     Br  0.91350124  0.06686131  0.89582140    -0.02920
H2104       H  0.91090645  0.10686404  0.95277611     0.09240
H2105       H  0.87891484  0.18038651  0.86489060     0.07250
Br2106     Br  0.87809368  0.22019277  0.92182102    -0.03350
C2107       C  0.92566854  0.24192946  0.13491154    -0.09990
C2108       C  0.90359553  0.21720551  0.14224791     0.06210
C2109       C  0.88634108  0.21904061  0.17155075    -0.03750
C2110       C  0.89000472  0.24549879  0.19196373    -0.08200
C2111       C  0.91109911  0.27112694  0.18450372     0.05320
C2112       C  0.92970711  0.26860974  0.15570716    -0.03230
Br2113     Br  0.96076448  0.30043981  0.14305827    -0.02920
H2114       H  0.93857929  0.24139009  0.11205787     0.09240
H2115       H  0.87573169  0.24587087  0.21399054     0.07250
Br2116     Br  0.85651171  0.18610977  0.18459151    -0.03350
C2117       C  0.77578724  0.32482347  0.07784146    -0.09990
C2118       C  0.74302131  0.31622647  0.07498280     0.06210
C2119       C  0.73494776  0.28520176  0.06463186    -0.03750
C2120       C  0.75954727  0.26275176  0.05918835    -0.08200
C2121       C  0.79234363  0.27092292  0.06338693     0.05320
C2122       C  0.80043345  0.30260791  0.07176886    -0.03230
Br2123     Br  0.84432525  0.31599010  0.07800841    -0.02920
H2124       H  0.78219207  0.34875980  0.08590073     0.09240
H2125       H  0.75298135  0.23855619  0.05212707     0.07250
Br2126     Br  0.69085748  0.27183630  0.06008385    -0.03350
C2127       C  0.86182031  0.02064566  0.05116622    -0.09990
C2128       C  0.84280700  0.01104324  0.07770180     0.06210
C2129       C  0.83784772  0.03372264  0.10275089    -0.03750
C2130       C  0.84966665  0.06484947  0.10052902    -0.08200
C2131       C  0.86628752  0.07545030  0.07320756     0.05320
C2132       C  0.87330203  0.05257068  0.04855432    -0.03230
Br2133     Br  0.89579424  0.06367550  0.00959541    -0.02920
H2134       H  0.86616716  0.00394334  0.03153325     0.09240
H2135       H  0.84454784  0.08141980  0.12015619     0.07250
Br2136     Br  0.81428928  0.02515696  0.14106879    -0.03350
C2137       C  0.51322725  0.20069255  0.94470143    -0.09990
C2138       C  0.53236196  0.22861016  0.94804445     0.06210
C2139       C  0.51726077  0.25731369  0.95724876    -0.03750
C2140       C  0.48336870  0.25849905  0.95898549    -0.08200
C2141       C  0.46416572  0.23146574  0.95129311     0.05320
C2142       C  0.47944067  0.20193538  0.94632644    -0.03230
Br2143     Br  0.45520136  0.16379619  0.93742024    -0.02920
H2144       H  0.52443109  0.17817929  0.93790563     0.09240
H2145       H  0.47192864  0.28157610  0.96279561     0.07250
Br2146     Br  0.54138817  0.29623769  0.96245987    -0.03350
C2147       C  0.58895429  0.11835587  0.01558326    -0.09990
C2148       C  0.59199809  0.15110469  0.00842340     0.06210
C2149       C  0.59504093  0.17307257  0.03429009    -0.03750
C2150       C  0.59732627  0.16232679  0.06585181    -0.08200
C2151       C  0.59583931  0.12958488  0.07350444     0.05320
C2152       C  0.59025564  0.10748075  0.04783017    -0.03230
Br2153     Br  0.58399190  0.06242573  0.05463516    -0.02920
H2154       H  0.58687371  0.10110508  0.99608039     0.09240
H2155       H  0.60039927  0.18021799  0.08461568     0.07250
Br2156     Br  0.59755352  0.21874027  0.02818404    -0.03350
C2157       C  0.71518154  0.15282304  0.99026884    -0.09990
C2158       C  0.72118576  0.15528370  0.95708543     0.06210
C2159       C  0.75272803  0.15254519  0.94470510    -0.03750
C2160       C  0.77828120  0.15239120  0.96611292    -0.08200
C2161       C  0.77228995  0.15505511  0.99928533     0.05320
C2162       C  0.74074809  0.15287406  0.01165564    -0.03230
Br2163     Br  0.73122822  0.15660626  0.05690622    -0.02920
H2164       H  0.69069336  0.15475923  0.99963988     0.09240
H2165       H  0.80280924  0.15389618  0.95678314     0.07250
Br2166     Br  0.76253006  0.15578978  0.89948498    -0.03350
C2167       C  0.63168476  0.02400840  0.88229604    -0.09990
C2168       C  0.65839141  0.01730444  0.86216785     0.06210
C2169       C  0.67369652  0.04362647  0.84640095    -0.03750
C2170       C  0.66179697  0.07461632  0.85004380    -0.08200
C2171       C  0.63552067  0.08173897  0.87032255     0.05320
C2172       C  0.62031689  0.05576199  0.88669539    -0.03230
Br2173     Br  0.58459453  0.06149293  0.91597573    -0.02920
H2174       H  0.61971132  0.00455845  0.89484775     0.09240
H2175       H  0.67446472  0.09368439  0.83755935     0.07250
Br2176     Br  0.71320973  0.04114552  0.82140016    -0.03350
C2177       C  0.73890989  0.26643207  0.88795961    -0.09990
C2178       C  0.70813001  0.27564120  0.89988655     0.06210
C2179       C  0.70396482  0.30816685  0.90916640    -0.03750
C2180       C  0.72942363  0.33038813  0.90476233    -0.08200
C2181       C  0.75931043  0.32109053  0.89116718     0.05320
C2182       C  0.76393533  0.28861175  0.88335156    -0.03230
Br2183     Br  0.80380016  0.27369697  0.86463174    -0.02920
H2184       H  0.74364140  0.24171584  0.88131846     0.09240
H2185       H  0.72505643  0.35553213  0.90992214     0.07250
Br2186     Br  0.66377649  0.32458898  0.92562708    -0.03350
C2187       C  0.54255088  0.46134561  0.75866657    -0.09990
C2188       C  0.52349966  0.44868466  0.73431969     0.06210
C2189       C  0.50513434  0.46996263  0.71523780    -0.03750
C2190       C  0.51033955  0.50316362  0.71704090    -0.08200
C2191       C  0.53341793  0.51564041  0.73809881     0.05320
C2192       C  0.54753927  0.49439944  0.76097329    -0.03230
Br2193     Br  0.57516234  0.50736892  0.79567593    -0.02920
H2194       H  0.55649036  0.44537067  0.77366588     0.09240
H2195       H  0.49807011  0.51884779  0.70041511     0.07250
Br2196     Br  0.47591449  0.45431560  0.68313024    -0.03350
C2197       C  0.43652301  0.37116090  0.65897034    -0.09990
C2198       C  0.46212870  0.37955891  0.63782799     0.06210
C2199       C  0.45419253  0.38742364  0.60578836    -0.03750
C2200       C  0.42160891  0.38658346  0.59594770    -0.08200
C2201       C  0.39637640  0.37756832  0.61730613     0.05320
C2202       C  0.40449397  0.36977866  0.64924308    -0.03230
Br2203     Br  0.37352795  0.35870736  0.68230623    -0.02920
H2204       H  0.44114171  0.36542705  0.68393613     0.09240
H2205       H  0.41599039  0.39310896  0.57138777     0.07250
Br2206     Br  0.48625442  0.39919651  0.57436927    -0.03350
C2207       C  0.61641409  0.26711639  0.77025329    -0.09990
C2208       C  0.58507440  0.27969427  0.76900629     0.06210
C2209       C  0.56068126  0.26471036  0.78792665    -0.03750
C2210       C  0.56849437  0.23899493  0.80852408    -0.08200
C2211       C  0.60020696  0.22690389  0.81007097     0.05320
C2212       C  0.62401336  0.24098802  0.78963411    -0.03230
Br2213     Br  0.66771782  0.22555623  0.78532862    -0.02920
H2214       H  0.63534443  0.27725188  0.75518915     0.09240
H2215       H  0.54975997  0.22879338  0.82375087     0.07250
Br2216     Br  0.51599373  0.27653471  0.78508402    -0.03350
C2217       C  0.64843050  0.40599218  0.74652127    -0.09990
C2218       C  0.65841661  0.39427891  0.71608512     0.06210
C2219       C  0.69075249  0.38442524  0.71246915    -0.03750
C2220       C  0.71188766  0.38525305  0.73874243    -0.08200
C2221       C  0.70208778  0.39627604  0.76959642     0.05320
C2222       C  0.66971612  0.40708505  0.77304057    -0.03230
Br2223     Br  0.65197674  0.42088597  0.81369203    -0.02920
H2224       H  0.62328800  0.41237813  0.75030759     0.09240
H2225       H  0.73641856  0.37704288  0.73472764     0.07250
Br2226     Br  0.70708844  0.36910696  0.67177203    -0.03350
C2227       C  0.62023693  0.35886025  0.54805848    -0.09990
C2228       C  0.59797953  0.34495294  0.56965907     0.06210
C2229       C  0.57437791  0.32384462  0.55748336    -0.03750
C2230       C  0.57436509  0.31537964  0.52494086    -0.08200
C2231       C  0.59735545  0.32786681  0.50346250     0.05320
C2232       C  0.62014044  0.35033311  0.51506060    -0.03230
Br2233     Br  0.65313034  0.36763350  0.48743782    -0.02920
H2234       H  0.63824200  0.37548373  0.55696505     0.09240
H2235       H  0.55679544  0.29802496  0.51648298     0.07250
Br2236     Br  0.54114668  0.30584314  0.58424534    -0.03350
C2237       C  0.41921025  0.98818681  0.71118011    -0.09990
C2238       C  0.44390132  0.00855241  0.72260556     0.06210
C2239       C  0.47429293  0.99508699  0.72918169    -0.03750
C2240       C  0.47878191  0.96181735  0.72568999    -0.08200
C2241       C  0.45382534  0.94185922  0.71410267     0.05320
C2242       C  0.42495102  0.95604368  0.70448977    -0.03230
Br2243     Br  0.39147351  0.93118801  0.68486206    -0.02920
H2244       H  0.39604486  0.99811743  0.70436551     0.09240
H2245       H  0.50097187  0.95115960  0.73422689     0.07250
Br2246     Br  0.51025434  0.02103844  0.74209550    -0.03350
C2247       C  0.53327502  0.11207416  0.62185058    -0.09990
C2248       C  0.51839608  0.08290953  0.63026759     0.06210
C2249       C  0.53648762  0.05449133  0.62878522    -0.03750
C2250       C  0.56915522  0.05568557  0.61982172    -0.08200
C2251       C  0.58458662  0.08507564  0.61348555     0.05320
C2252       C  0.56628859  0.11342201  0.61398391    -0.03230
Br2253     Br  0.58547956  0.15425008  0.60462262    -0.02920
H2254       H  0.51951772  0.13414466  0.62312833     0.09240
H2255       H  0.58306022  0.03373282  0.61945574     0.07250
Br2256     Br  0.51826854  0.01415860  0.64165449    -0.03350
C2257       C  0.47117336  0.22765894  0.64641587    -0.09990
C2258       C  0.48435576  0.19988233  0.65999159     0.06210
C2259       C  0.51739620  0.19927010  0.66854347    -0.03750
C2260       C  0.53521191  0.22729217  0.66672862    -0.08200
C2261       C  0.52023274  0.25589460  0.65824096     0.05320
C2262       C  0.48863103  0.25600386  0.64648067    -0.03230
Br2263     Br  0.46729175  0.29443836  0.63328090    -0.02920
H2264       H  0.44611538  0.22840690  0.63909470     0.09240
H2265       H  0.55982935  0.22745449  0.67550271     0.07250
Br2266     Br  0.53934906  0.16296020  0.68661450    -0.03350
C2267       C  0.39481922  0.16306599  0.56121130    -0.09990
C2268       C  0.38749965  0.13130557  0.56922681     0.06210
C2269       C  0.38441816  0.10849485  0.54392738    -0.03750
C2270       C  0.38806863  0.11801781  0.51155618    -0.08200
C2271       C  0.39454913  0.15013157  0.50371131     0.05320
C2272       C  0.39866045  0.17251681  0.52922494    -0.03230
Br2273     Br  0.41056957  0.21660902  0.52261842    -0.02920
H2274       H  0.39871690  0.18068764  0.58009893     0.09240
H2275       H  0.38406878  0.10064433  0.49247768     0.07250
Br2276     Br  0.37305516  0.06456116  0.55180520    -0.03350
C2277       C  0.41299387  0.17967014  0.80269335    -0.09990
C2278       C  0.41617651  0.18766017  0.77003957     0.06210
C2279       C  0.41761881  0.22084659  0.76194957    -0.03750
C2280       C  0.41337165  0.24468309  0.78566872    -0.08200
C2281       C  0.40788832  0.23653513  0.81782747     0.05320
C2282       C  0.40856493  0.20367840  0.82632675    -0.03230
Br2283     Br  0.40151577  0.19025260  0.86990247    -0.02920
H2284       H  0.41227139  0.15469676  0.80971038     0.09240
H2285       H  0.41268975  0.26966258  0.77864891     0.07250
Br2286     Br  0.42527755  0.23599877  0.71893498    -0.03350
C2287       C  0.26152865  0.00613465  0.95472147    -0.09990
C2288       C  0.23474444  0.02304525  0.94406786     0.06210
C2289       C  0.21074050  0.03248314  0.96719660    -0.03750
C2290       C  0.21580267  0.02816483  0.00021284    -0.08200
C2291       C  0.24463712  0.01516278  0.01099925     0.05320
C2292       C  0.26681238  0.00234864  0.98774069    -0.03230
Br2293     Br  0.30778234  0.98422691  0.99913444    -0.02920
H2294       H  0.27978987  0.99826940  0.93752963     0.09240
H2295       H  0.19877070  0.03828712  0.01747641     0.07250
Br2296     Br  0.17117662  0.05372457  0.95636558    -0.03350
C2297       C  0.12847538  0.94764368  0.86487605    -0.09990
C2298       C  0.15492091  0.95810958  0.88320315     0.06210
C2299       C  0.17373667  0.93481019  0.89880253    -0.03750
C2300       C  0.16733285  0.90208355  0.89444130    -0.08200
C2301       C  0.14212664  0.89147392  0.87456707     0.05320
C2302       C  0.12188552  0.91475711  0.86049946    -0.03230
Br2303     Br  0.08716955  0.90326284  0.83226088    -0.02920
H2304       H  0.11424081  0.96510386  0.85201482     0.09240
H2305       H  0.18259415  0.88476530  0.90633386     0.07250
Br2306     Br  0.21028965  0.94628225  0.92433162    -0.03350
C2307       C  0.08280249  0.07323161  0.80416705    -0.09990
C2308       C  0.08772433  0.08310379  0.83606224     0.06210
C2309       C  0.06058019  0.08826437  0.85624775    -0.03750
C2310       C  0.02916750  0.08555218  0.84355222    -0.08200
C2311       C  0.02446921  0.07703439  0.81101830     0.05320
C2312       C  0.05182802  0.06965610  0.79177140    -0.03230
Br2313     Br  0.04865266  0.05423150  0.74816210    -0.02920
H2314       H  0.10331833  0.06793801  0.78864884     0.09240
H2315       H  0.00854219  0.09168478  0.85864579     0.07250
Br2316     Br  0.06538000  0.10151011  0.90026453    -0.03350
C2317       C  0.26073748  0.15941126  0.85504986    -0.09990
C2318       C  0.23738607  0.15023300  0.87843511     0.06210
C2319       C  0.24283594  0.16016643  0.91074255    -0.03750
C2320       C  0.27003829  0.17942889  0.91830961    -0.08200
C2321       C  0.29257425  0.18875509  0.89441117     0.05320
C2322       C  0.28767761  0.17810958  0.86268365    -0.03230
Br2323     Br  0.31730551  0.18870314  0.82844668    -0.02920
H2324       H  0.25845669  0.15186817  0.83014905     0.09240
H2325       H  0.27290816  0.18817675  0.94277114     0.07250
Br2326     Br  0.21404530  0.14923243  0.94548633    -0.03350
C2327       C  0.27399510  0.09038996  0.74116082    -0.09990
C2328       C  0.28228177  0.07067731  0.76755729     0.06210
C2329       C  0.31300696  0.05569603  0.76644306    -0.03750
C2330       C  0.33413939  0.06096873  0.73994925    -0.08200
C2331       C  0.32565787  0.08131779  0.71429694     0.05320
C2332       C  0.29509420  0.09581215  0.71520755    -0.03230
Br2333     Br  0.28085850  0.12337484  0.68125671    -0.02920
H2334       H  0.25071252  0.10217342  0.74044918     0.09240
H2335       H  0.35802794  0.05034520  0.74019187     0.07250
Br2336     Br  0.32826398  0.02888708  0.80047435    -0.03350
C2337       C  0.22549730  0.96481570  0.48840402    -0.09990
C2338       C  0.25254632  0.95502091  0.50640151     0.06210
C2339       C  0.28096797  0.94664099  0.49002275    -0.03750
C2340       C  0.28073994  0.94395776  0.45647234    -0.08200
C2341       C  0.25279997  0.95074450  0.43848820     0.05320
C2342       C  0.22551026  0.96296726  0.45457490    -0.03230
Br2343     Br  0.18651127  0.97252879  0.43201494    -0.02920
H2344       H  0.20314273  0.97084313  0.50081927     0.09240
H2345       H  0.30223225  0.93488109  0.44444106     0.07250
Br2346     Br  0.31956142  0.93576504  0.51261504    -0.03350
C2347       C  0.16760272  0.03140475  0.54916093    -0.09990
C2348       C  0.16076322  0.01227438  0.57594093     0.06210
C2349       C  0.14267757  0.02558933  0.60177693    -0.03750
C2350       C  0.13393942  0.05814774  0.60160358    -0.08200
C2351       C  0.14237138  0.07774709  0.57550537     0.05320
C2352       C  0.15816266  0.06365319  0.54855777    -0.03230
Br2353     Br  0.16803355  0.08719215  0.51027221    -0.02920
H2354       H  0.18165252  0.02166413  0.52921962     0.09240
H2355       H  0.12057491  0.06815094  0.62187121     0.07250
Br2356     Br  0.12863818  0.99978304  0.63730928    -0.03350
C2357       C  0.16216608  0.96302819  0.71942591    -0.09990
C2358       C  0.18267028  0.97365044  0.69458578     0.06210
C2359       C  0.19302343  0.00606132  0.69406477    -0.03750
C2360       C  0.18631352  0.02561750  0.72028372    -0.08200
C2361       C  0.17043470  0.01317379  0.74712717     0.05320
C2362       C  0.15633029  0.98268179  0.74601906    -0.03230
Br2363     Br  0.13206330  0.96612758  0.78161101    -0.02920
H2364       H  0.15317443  0.93861619  0.71964985     0.09240
H2365       H  0.19693801  0.04940232  0.72131055     0.07250
Br2366     Br  0.21881375  0.02513830  0.66041766    -0.03350
C2367       C  0.08088781  0.91162769  0.61681774    -0.09990
C2368       C  0.09924302  0.88331594  0.61392816     0.06210
C2369       C  0.08357369  0.85357585  0.61705999    -0.03750
C2370       C  0.05054563  0.85261154  0.62464362    -0.08200
C2371       C  0.03295773  0.88080352  0.63083593     0.05320
C2372       C  0.04803132  0.91057574  0.62552594    -0.03230
Br2373     Br  0.02535687  0.95020763  0.63173564    -0.02920
H2374       H  0.09252109  0.93471498  0.61375664     0.09240
H2375       H  0.03860666  0.82964369  0.62668248     0.07250
Br2376     Br  0.10619604  0.81381473  0.61117097    -0.03350
C2377       C  0.30213408  0.92374134  0.70318787    -0.09990
C2378       C  0.29985738  0.90302603  0.67624784     0.06210
C2379       C  0.31719433  0.87416330  0.67668597    -0.03750
C2380       C  0.33581052  0.86620713  0.70352510    -0.08200
C2381       C  0.33761864  0.88629657  0.73110354     0.05320
C2382       C  0.32095570  0.91579895  0.73029360    -0.03230
Br2383     Br  0.32109901  0.94489849  0.76613556    -0.02920
H2384       H  0.28792132  0.94555055  0.70381244     0.09240
H2385       H  0.34890918  0.84372843  0.70273865     0.07250
Br2386     Br  0.31470777  0.84388601  0.64179467    -0.03350
C2387       C  0.48257826  0.71646847  0.49173134    -0.09990
C2388       C  0.46317005  0.73865735  0.50899263     0.06210
C2389       C  0.47792927  0.76498166  0.52370665    -0.03750
C2390       C  0.51162513  0.76647265  0.52475794    -0.08200
C2391       C  0.53110821  0.74144287  0.51205927     0.05320
C2392       C  0.51639394  0.71735440  0.49354850    -0.03230
Br2393     Br  0.54045099  0.68240463  0.47518417    -0.02920
H2394       H  0.47133868  0.69579839  0.48047533     0.09240
H2395       H  0.52255871  0.78604136  0.53807977     0.07250
Br2396     Br  0.45310243  0.79643768  0.54686919    -0.03350
C2397       C  0.40611674  0.65922549  0.38765348    -0.09990
C2398       C  0.40041392  0.62692767  0.37962849     0.06210
C2399       C  0.39902296  0.60420610  0.40504449    -0.03750
C2400       C  0.40103549  0.61458545  0.43734018    -0.08200
C2401       C  0.40478850  0.64718937  0.44484812     0.05320
C2402       C  0.40850907  0.66933732  0.41952143    -0.03230
Br2403     Br  0.41643415  0.71426976  0.42687772    -0.02920
H2404       H  0.40872854  0.67714804  0.36899952     0.09240
H2405       H  0.39790668  0.59738623  0.45661245     0.07250
Br2406     Br  0.39326991  0.55902087  0.39808088    -0.03350
C2407       C  0.29625694  0.79979752  0.55735357    -0.09990
C2408       C  0.28886433  0.76774339  0.56471542     0.06210
C2409       C  0.25685809  0.76081000  0.57576178    -0.03750
C2410       C  0.23416003  0.78555426  0.58019962    -0.08200
C2411       C  0.24202892  0.81744950  0.57347990     0.05320
C2412       C  0.27345495  0.82435757  0.56197674    -0.03230
Br2413     Br  0.28755169  0.86749150  0.55527238    -0.02920
H2414       H  0.32030285  0.80607780  0.54895410     0.09240
H2415       H  0.21038959  0.77993363  0.58982865     0.07250
Br2416     Br  0.24147555  0.71842712  0.58540980    -0.03350
C2417       C  0.41853311  0.74642884  0.63472827    -0.09990
C2418       C  0.40566728  0.71661341  0.64395691     0.06210
C2419       C  0.39648827  0.71237215  0.67636415    -0.03750
C2420       C  0.39964342  0.73762984  0.69867682    -0.08200
C2421       C  0.41136433  0.76810534  0.68945391     0.05320
C2422       C  0.42132624  0.77204171  0.65684428    -0.03230
Br2423     Br  0.43660686  0.81210230  0.63979998    -0.02920
H2424       H  0.42451493  0.75051312  0.60957633     0.09240
H2425       H  0.39239549  0.73333906  0.72344834     0.07250
Br2426     Br  0.37860621  0.67248672  0.69090568    -0.03350
C2427       C  0.36509042  0.55377229  0.55162038    -0.09990
C2428       C  0.36253299  0.57305800  0.57965071     0.06210
C2429       C  0.35119160  0.55867195  0.60817742    -0.03750
C2430       C  0.34127001  0.52658386  0.60778111    -0.08200
C2431       C  0.33992173  0.50829639  0.57907392     0.05320
C2432       C  0.35374531  0.52182382  0.55103239    -0.03230
Br2433     Br  0.35660272  0.49890954  0.51106277    -0.02920
H2434       H  0.37433035  0.56413840  0.52946945     0.09240
H2435       H  0.33350913  0.51602743  0.63024434     0.07250
Br2436     Br  0.34827648  0.58148309  0.64849407    -0.03350
C2437       C  0.97108073  0.70588629  0.44787320    -0.09990
C2438       C  0.95947491  0.73622868  0.44069904     0.06210
C2439       C  0.98210963  0.76167252  0.43577241    -0.03750
C2440       C  0.01510529  0.75650780  0.43944992    -0.08200
C2441       C  0.02673859  0.72558769  0.44294937     0.05320
C2442       C  0.00424721  0.69991502  0.44659855    -0.03230
Br2443     Br  0.01571595  0.65550522  0.44336769    -0.02920
H2444       H  0.95434690  0.68593634  0.44966991     0.09240
H2445       H  0.03191124  0.77592059  0.43465506     0.07250
Br2446     Br  0.97157198  0.80312288  0.41900787    -0.03350
C2447       C  0.12051852  0.61613912  0.51379271    -0.09990
C2448       C  0.09642546  0.63771941  0.50369006     0.06210
C2449       C  0.07487125  0.64996329  0.52730208    -0.03750
C2450       C  0.07712338  0.64033656  0.55950324    -0.08200
C2451       C  0.10166503  0.61970241  0.56968060     0.05320
C2452       C  0.12334836  0.60726172  0.54647316    -0.03230
Br2453     Br  0.15809308  0.57978009  0.55881957    -0.02920
H2454       H  0.13856516  0.60785189  0.49657741     0.09240
H2455       H  0.06017576  0.65006539  0.57709666     0.07250
Br2456     Br  0.04436125  0.68305615  0.51815577    -0.03350
C2457       C  0.19715039  0.78952593  0.35966867    -0.09990
C2458       C  0.19570976  0.77955919  0.39174604     0.06210
C2459       C  0.21991109  0.79032245  0.41300097    -0.03750
C2460       C  0.24492851  0.81060648  0.40189729    -0.08200
C2461       C  0.24694625  0.82020017  0.36934611     0.05320
C2462       C  0.22191884  0.80954153  0.34830095    -0.03230
Br2463     Br  0.21871818  0.82032480  0.30333903    -0.02920
H2464       H  0.17935084  0.78053156  0.34283433     0.09240
H2465       H  0.26310531  0.81851467  0.41880365     0.07250
Br2466     Br  0.22092969  0.77611161  0.45689215    -0.03350
C2467       C  0.12014146  0.75732442  0.26196335    -0.09990
C2468       C  0.09088612  0.77443309  0.26290229     0.06210
C2469       C  0.06688377  0.76378677  0.28511218    -0.03750
C2470       C  0.07308299  0.73795149  0.30630534    -0.08200
C2471       C  0.10292843  0.72160063  0.30601311     0.05320
C2472       C  0.12628097  0.73152716  0.28274214    -0.03230
Br2473     Br  0.16732722  0.71061549  0.27696753    -0.02920
H2474       H  0.13871294  0.76404286  0.24467499     0.09240
H2475       H  0.05468129  0.73126416  0.32377633     0.07250
Br2476     Br  0.02453875  0.78238295  0.28668846    -0.03350
C2477       C  0.24945340  0.65213330  0.44925238    -0.09990
C2478       C  0.22073823  0.66292430  0.46375831     0.06210
C2479       C  0.21789357  0.66400774  0.49766078    -0.03750
C2480       C  0.24484217  0.65784383  0.51618980    -0.08200
C2481       C  0.27469798  0.65285853  0.50124164     0.05320
C2482       C  0.27672421  0.64762200  0.46786021    -0.03230
Br2483     Br  0.31682324  0.63809712  0.44649471    -0.02920
H2484       H  0.25160449  0.65025888  0.42324071     0.09240
H2485       H  0.24335283  0.66123204  0.54207653     0.07250
Br2486     Br  0.17947554  0.67676505  0.52039888    -0.03350
C2487       C  0.16780131  0.53120092  0.39646302    -0.09990
C2488       C  0.15195531  0.51078490  0.37483971     0.06210
C2489       C  0.12932838  0.52391615  0.35342821    -0.03750
C2490       C  0.12362224  0.55718455  0.35348850    -0.08200
C2491       C  0.14074954  0.57757017  0.37438015     0.05320
C2492       C  0.16185280  0.56401790  0.39692844    -0.03230
Br2493     Br  0.18293329  0.58888324  0.42954274    -0.02920
H2494       H  0.18656644  0.52195932  0.41182242     0.09240
H2495       H  0.10653052  0.56720409  0.33669056     0.07250
Br2496     Br  0.10805296  0.49756674  0.32204585    -0.03350
loop_ 
_geom_bond_atom_site_label_1 
_geom_bond_atom_site_label_2 
_geom_bond_distance 
_geom_bond_site_symmetry_2 
_ccdc_geom_bond_type 
Fe1          O17   2.031       .  S
Fe1           O7   2.157       .  S
Fe1          O14   2.152       .  S
Fe1           O6   1.988       .  S
Fe1          O12   1.938       .  S
Fe2           O5   2.021       .  S
Fe2           O9   2.086       .  S
Fe2          O13   2.046       .  S
Fe2          O18   2.071       .  S
Fe2          O12   1.946       .  S
Fe3          O21   2.066       .  S
Fe3           O8   2.093       .  S
Fe3          O15   2.026       .  S
Fe3           O4   2.112       .  S
Fe3          O12   1.968       .  S
O4           C11   1.274       .  A
O5           C19   1.264       .  A
O6           C11   1.246       .  A
O7           C10   1.290       .  A
O8           C20   1.280       .  A
O9           C22   1.267       .  A
C10          O15   1.263       .  A
C10        C2448   1.489       .  S
C11        C2441   1.468       .  S
O13          C16   1.270       .  A
O14          C16   1.292       .  A
C16        C2471   1.517       .  S
O17          C22   1.253       .  A
O18          C20   1.270       .  A
C19          O21   1.270       .  A
C19        C2478   1.452       .  S
C20        C2458   1.483       .  S
C22        C2491   1.473       .  S
Fe23         O39   2.059       .  S
Fe23         O29   2.108       .  S
Fe23         O36   2.140       .  S
Fe23         O28   2.014       .  S
Fe23         O34   1.938       .  S
Fe24         O27   2.027       .  S
Fe24         O31   2.083       .  S
Fe24         O35   2.035       .  S
Fe24         O40   2.080       .  S
Fe24         O34   1.961       .  S
Fe25         O43   2.068       .  S
Fe25         O30   2.085       .  S
Fe25         O37   2.024       .  S
Fe25         O26   2.099       .  S
Fe25         O34   1.949       .  S
O26          C33   1.276       .  A
O27          C41   1.268       .  A
O28          C33   1.261       .  A
O29          C32   1.278       .  A
O30          C42   1.273       .  A
O31          C44   1.264       .  A
C32          O37   1.264       .  A
C32        C2401   1.475       .  S
C33        C2388   1.468       .  S
O35          C38   1.271       .  A
O36          C38   1.291       .  A
C38        C2418   1.486       .  S
O39          C44   1.257       .  A
O40          C42   1.266       .  A
C41          O43   1.277       .  A
C41        C2481   1.440       .  S
C42        C2408   1.506       .  S
C44        C2428   1.494       .  S
Fe45         O61   2.047       .  S
Fe45         O51   2.124       .  S
Fe45         O58   2.128       .  S
Fe45         O50   2.014       .  S
Fe45         O56   1.931       .  S
Fe46         O49   2.051       .  S
Fe46         O53   2.090       .  S
Fe46         O57   2.048       .  S
Fe46         O62   2.087       .  S
Fe46         O56   1.946       .  S
Fe47         O65   2.049       .  S
Fe47         O52   2.091       .  S
Fe47         O59   2.041       .  S
Fe47         O48   2.110       .  S
Fe47         O56   1.951       .  S
O48          C55   1.273       .  A
O49          C63   1.269       .  A
O50          C55   1.255       .  A
O51          C54   1.284       .  A
O52          C64   1.282       .  A
O53          C66   1.268       .  A
C54          O59   1.267       .  A
C54        C2348   1.479   1_565  S
C55        C2338   1.470       .  S
O57          C60   1.272       .  A
O58          C60   1.288       .  A
C60        C2411   1.486       .  S
O61          C66   1.257       .  A
O62          C64   1.274       .  A
C63          O65   1.264       .  A
C63        C2358   1.457       .  S
C64        C2378   1.487       .  S
C66        C2368   1.479       .  S
Fe67         O83   2.062       .  S
Fe67         O73   2.156       .  S
Fe67         O80   2.134       .  S
Fe67         O72   1.996       .  S
Fe67         O78   1.924       .  S
Fe68         O71   2.024       .  S
Fe68         O75   2.078       .  S
Fe68         O79   2.026       .  S
Fe68         O84   2.069       .  S
Fe68         O78   1.929       .  S
Fe69         O87   2.076       .  S
Fe69         O74   2.109       .  S
Fe69         O81   2.024   1_545  S
Fe69         O70   2.148       .  S
Fe69         O78   1.951       .  S
O70          C77   1.280       .  A
O71          C85   1.265       .  A
O72          C77   1.243       .  A
O73          C76   1.287   1_545  A
O74          C86   1.283       .  A
O75          C88   1.269       .  A
C76          O81   1.263       .  A
C76        C2298   1.482       .  S
C77        C2288   1.486       .  S
O79          C82   1.267       .  A
O80          C82   1.287       .  A
C82        C2318   1.515       .  S
O83          C88   1.263       .  A
O84          C86   1.271       .  A
C85          O87   1.278       .  A
C85        C2361   1.436       .  S
C86        C2328   1.514       .  S
C88        C2308   1.481       .  S
Fe89        O105   2.027       .  S
Fe89         O95   2.087       .  S
Fe89        O102   2.122       .  S
Fe89         O94   1.959       .  S
Fe89        O100   1.937       .  S
Fe90         O93   2.033       .  S
Fe90         O97   2.073       .  S
Fe90        O101   2.065       .  S
Fe90        O106   2.058       .  S
Fe90        O100   1.945       .  S
Fe91        O109   2.054       .  S
Fe91         O96   2.101       .  S
Fe91        O103   2.063       .  S
Fe91         O92   2.110       .  S
Fe91        O100   1.968       .  S
O92          C99   1.274       .  A
O93         C107   1.273       .  A
O94          C99   1.246       .  A
O95          C98   1.278       .  A
O96         C108   1.275       .  A
O97         C110   1.261       .  A
C98         O103   1.272       .  A
C98        C2248   1.471       .  S
C99        C2238   1.470       .  S
O101        C104   1.281       .  A
O102        C104   1.291       .  A
C104       C2331   1.492       .  S
O105        C110   1.247       .  A
O106        C108   1.262       .  A
C107        O109   1.273       .  A
C107       C2258   1.456       .  S
C108       C2278   1.501       .  S
C110       C2268   1.488       .  S
Fe111       O127   2.060       .  S
Fe111       O117   2.120       .  S
Fe111       O124   2.137       .  S
Fe111       O116   2.006       .  S
Fe111       O122   1.961       .  S
Fe112       O115   2.015       .  S
Fe112       O119   2.063       .  S
Fe112       O123   2.051       .  S
Fe112       O128   2.059       .  S
Fe112       O122   1.965       .  S
Fe113       O131   2.059       .  S
Fe113       O118   2.083       .  S
Fe113       O125   2.031       .  S
Fe113       O114   2.099       .  S
Fe113       O122   1.965       .  S
O114        C121   1.274       .  A
O115        C129   1.264       .  A
O116        C121   1.254       .  A
O117        C120   1.284       .  A
O118        C130   1.270       .  A
O119        C132   1.260       .  A
C120        O125   1.267       .  A
C120       C2198   1.504       .  S
C121       C2188   1.469       .  S
O123        C126   1.274       .  A
O124        C126   1.291       .  A
C126       C2218   1.495       .  S
O127        C132   1.256       .  A
O128        C130   1.267       .  A
C129        O131   1.273       .  A
C129       C2261   1.437       .  S
C130       C2208   1.497       .  S
C132       C2228   1.481       .  S
Fe133       O149   2.071       .  S
Fe133       O139   2.158       .  S
Fe133       O146   2.151       .  S
Fe133       O138   2.011       .  S
Fe133       O144   1.924       .  S
Fe134       O137   2.023       .  S
Fe134       O141   2.084       .  S
Fe134       O145   2.010       .  S
Fe134       O150   2.089       .  S
Fe134       O144   1.921       .  S
Fe135       O153   2.071       .  S
Fe135       O140   2.089       .  S
Fe135       O147   2.010       .  S
Fe135       O136   2.137       .  S
Fe135       O144   1.938       .  S
O136        C143   1.277       .  A
O137        C151   1.264       .  A
O138        C143   1.252       .  A
O139        C142   1.289       .  A
O140        C152   1.279       .  A
O141        C154   1.272       .  A
C142        O147   1.261       .  A
C142       C2148   1.485   1_556  S
C143       C2138   1.483       .  S
O145        C148   1.263       .  A
O146        C148   1.292       .  A
C148       C2211   1.501       .  S
O149        C154   1.263       .  A
O150        C152   1.276       .  A
C151        O153   1.276       .  A
C151       C2158   1.441       .  S
C152       C2178   1.510       .  S
C154       C2171   1.504       .  S
Fe155       O171   2.066       .  S
Fe155       O161   2.153   1_554  S
Fe155       O168   2.126       .  S
Fe155       O160   2.006       .  S
Fe155       O166   1.912       .  S
Fe156       O159   2.023       .  S
Fe156       O163   2.089       .  S
Fe156       O167   2.024       .  S
Fe156       O172   2.091       .  S
Fe156       O166   1.919       .  S
Fe157       O175   2.074       .  S
Fe157       O162   2.060       .  S
Fe157       O169   1.992   1_554  S
Fe157       O158   2.137       .  S
Fe157       O166   1.940       .  S
O158        C165   1.272       .  A
O159        C173   1.264       .  A
O160        C165   1.246       .  A
O161        C164   1.288       .  A
O162        C174   1.274       .  A
O163        C176   1.276       .  A
C164        O169   1.258       .  A
C164       C2098   1.472       .  S
C165       C2091   1.478       .  S
O167        C170   1.266       .  A
O168        C170   1.286       .  A
C170       C2108   1.486       .  S
O171        C176   1.265       .  A
O172        C174   1.276       .  A
C173        O175   1.276       .  A
C173       C2161   1.440   1_554  S
C174       C2121   1.477       .  S
C176       C2131   1.498       .  S
Fe177       O193   2.042       .  S
Fe177       O183   2.146       .  S
Fe177       O190   2.113       .  S
Fe177       O182   2.000       .  S
Fe177       O188   1.916       .  S
Fe178       O181   2.026       .  S
Fe178       O185   2.082       .  S
Fe178       O189   2.025       .  S
Fe178       O194   2.081       .  S
Fe178       O188   1.916       .  S
Fe179       O197   2.077       .  S
Fe179       O184   2.096       .  S
Fe179       O191   2.013       .  S
Fe179       O180   2.140       .  S
Fe179       O188   1.936       .  S
O180        C187   1.277       .  A
O181        C195   1.269       .  A
O182        C187   1.243       .  A
O183        C186   1.284       .  A
O184        C196   1.279       .  A
O185        C198   1.271       .  A
C186        O191   1.261       .  A
C186       C2048   1.473       .  S
C187       C2041   1.484       .  S
O189        C192   1.266       .  A
O190        C192   1.282       .  A
C192       C2118   1.470       .  S
O193        C198   1.261       .  A
O194        C196   1.271       .  A
C195        O197   1.280       .  A
C195       C2068   1.442       .  S
C196       C2058   1.496       .  S
C198       C2078   1.471       .  S
Fe199       O215   2.076       .  S
Fe199       O205   2.134       .  S
Fe199       O212   2.111       .  S
Fe199       O204   2.006       .  S
Fe199       O210   1.922       .  S
Fe200       O203   2.034       .  S
Fe200       O207   2.094       .  S
Fe200       O211   2.048       .  S
Fe200       O216   2.078       .  S
Fe200       O210   1.918       .  S
Fe201       O219   2.072       .  S
Fe201       O206   2.090       .  S
Fe201       O213   2.013       .  S
Fe201       O202   2.113       .  S
Fe201       O210   1.957       .  S
O202        C209   1.271       .  A
O203        C217   1.271       .  A
O204        C209   1.247       .  A
O205        C208   1.283       .  A
O206        C218   1.276       .  A
O207        C220   1.271       .  A
C208        O213   1.261       .  A
C208       C1998   1.475       .  S
C209       C1991   1.471       .  S
O211        C214   1.270       .  A
O212        C214   1.282       .  A
C214       C2021   1.482       .  S
O215        C220   1.266       .  A
O216        C218   1.270       .  A
C217        O219   1.278       .  A
C217       C2071   1.450       .  S
C218       C2008   1.494       .  S
C220       C2028   1.500       .  S
Fe221       O237   2.046       .  S
Fe221       O227   2.107       .  S
Fe221       O234   2.138       .  S
Fe221       O226   1.995       .  S
Fe221       O232   1.945       .  S
Fe222       O225   2.041       .  S
Fe222       O229   2.038       .  S
Fe222       O233   2.049       .  S
Fe222       O238   2.041       .  S
Fe222       O232   1.939       .  S
Fe223       O241   2.043       .  S
Fe223       O228   2.104       .  S
Fe223       O235   2.068       .  S
Fe223       O224   2.083       .  S
Fe223       O232   1.957       .  S
O224        C231   1.270       .  A
O225        C239   1.271       .  A
O226        C231   1.252       .  A
O227        C230   1.283   1_655  A
O228        C240   1.276       .  A
O229        C242   1.252       .  A
C230        O235   1.278   1_455  A
C230       C1951   1.504       .  S
C231       C1941   1.463       .  S
O233        C236   1.280       .  A
O234        C236   1.294       .  A
C236       C2011   1.507       .  S
O237        C242   1.253       .  A
O238        C240   1.260       .  A
C239        O241   1.266       .  A
C239       C1958   1.459       .  S
C240       C1978   1.491       .  S
C242       C1971   1.489       .  S
Fe243       O259   2.050       .  S
Fe243       O249   2.107       .  S
Fe243       O256   2.138       .  S
Fe243       O248   2.000       .  S
Fe243       O254   1.945       .  S
Fe244       O247   2.020       .  S
Fe244       O251   2.090       .  S
Fe244       O255   2.034       .  S
Fe244       O260   2.095       .  S
Fe244       O254   1.958       .  S
Fe245       O263   2.068       .  S
Fe245       O250   2.090       .  S
Fe245       O257   2.025       .  S
Fe245       O246   2.110       .  S
Fe245       O254   1.951       .  S
O246        C253   1.278       .  A
O247        C261   1.268       .  A
O248        C253   1.255       .  A
O249        C252   1.279   1_455  A
O250        C262   1.270       .  A
O251        C264   1.266       .  A
C252        O257   1.264   1_655  A
C252       C1908   1.492       .  S
C253       C1901   1.471       .  S
O255        C258   1.275       .  A
O256        C258   1.293       .  A
C258       C1918   1.482       .  S
O259        C264   1.253       .  A
O260        C262   1.270       .  A
C261        O263   1.280       .  A
C261       C1961   1.430       .  S
C262       C2468   1.516       .  S
C264       C1928   1.507       .  S
Fe265       O281   2.067       .  S
Fe265       O271   2.141       .  S
Fe265       O278   2.124       .  S
Fe265       O270   2.010       .  S
Fe265       O276   1.925       .  S
Fe266       O269   2.043       .  S
Fe266       O273   2.082       .  S
Fe266       O277   2.043       .  S
Fe266       O282   2.077       .  S
Fe266       O276   1.923       .  S
Fe267       O285   2.065       .  S
Fe267       O272   2.092       .  S
Fe267       O279   2.014       .  S
Fe267       O268   2.129       .  S
Fe267       O276   1.957       .  S
O268        C275   1.273       .  A
O269        C283   1.268       .  A
O270        C275   1.248       .  A
O271        C274   1.287       .  A
O272        C284   1.280       .  A
O273        C286   1.270       .  A
C274        O279   1.264       .  A
C274       C1868   1.480   1_565  S
C275       C2341   1.478       .  S
O277        C280   1.268       .  A
O278        C280   1.287       .  A
C280       C2461   1.510       .  S
O281        C286   1.264       .  A
O282        C284   1.274       .  A
C283        O285   1.274       .  A
C283       C1878   1.455       .  S
C284       C1921   1.508       .  S
C286       C1891   1.499       .  S
Fe287       O303   2.044       .  S
Fe287       O293   2.112       .  S
Fe287       O300   2.152       .  S
Fe287       O292   1.987       .  S
Fe287       O298   1.932       .  S
Fe288       O291   2.035       .  S
Fe288       O295   2.090       .  S
Fe288       O299   2.043       .  S
Fe288       O304   2.062       .  S
Fe288       O298   1.950       .  S
Fe289       O307   2.083       .  S
Fe289       O294   2.089       .  S
Fe289       O301   2.011   1_545  S
Fe289       O290   2.129       .  S
Fe289       O298   1.945       .  S
O290        C297   1.285       .  A
O291        C305   1.275       .  A
O292        C297   1.254       .  A
O293        C296   1.280   1_545  A
O294        C306   1.270       .  A
O295        C308   1.265       .  A
C296        O301   1.259       .  A
C296       C1831   1.472       .  S
C297       C2291   1.477       .  S
O299        C302   1.276       .  A
O300        C302   1.296       .  A
C302       C1838   1.494       .  S
O303        C308   1.251       .  A
O304        C306   1.263       .  A
C305        O307   1.284       .  A
C305       C1881   1.447       .  S
C306       C1851   1.506       .  S
C308       C1858   1.498       .  S
Fe309       O325   2.073       .  S
Fe309       O315   2.120       .  S
Fe309       O322   2.138       .  S
Fe309       O314   2.015       .  S
Fe309       O320   1.936       .  S
Fe310       O313   2.021       .  S
Fe310       O317   2.093       .  S
Fe310       O321   2.029       .  S
Fe310       O326   2.082       .  S
Fe310       O320   1.938       .  S
Fe311       O329   2.078       .  S
Fe311       O316   2.089       .  S
Fe311       O323   2.004       .  S
Fe311       O312   2.130       .  S
Fe311       O320   1.939       .  S
O312        C319   1.282       .  A
O313        C327   1.265       .  A
O314        C319   1.259       .  A
O315        C318   1.280       .  A
O316        C328   1.277       .  A
O317        C330   1.269       .  A
C318        O323   1.259       .  A
C318       C1798   1.471   1_556  S
C319       C2141   1.477       .  S
O321        C324   1.267       .  A
O322        C324   1.289       .  A
C324       C2281   1.487       .  S
O325        C330   1.261       .  A
O326        C328   1.270       .  A
C327        O329   1.278       .  A
C327       C1808   1.443       .  S
C328       C2321   1.490       .  S
C330       C1818   1.504       .  S
Fe331       O347   2.074       .  S
Fe331       O337   2.112   1_554  S
Fe331       O344   2.142       .  S
Fe331       O336   2.022       .  S
Fe331       O342   1.930       .  S
Fe332       O335   2.028       .  S
Fe332       O339   2.087       .  S
Fe332       O343   2.039       .  S
Fe332       O348   2.086       .  S
Fe332       O342   1.938       .  S
Fe333       O351   2.077   1_554  S
Fe333       O338   2.094       .  S
Fe333       O345   2.012   1_554  S
Fe333       O334   2.108       .  S
Fe333       O342   1.936       .  S
O334        C341   1.279       .  A
O335        C349   1.270       .  A
O336        C341   1.262       .  A
O337        C340   1.278       .  A
O338        C350   1.276       .  A
O339        C352   1.266       .  A
C340        O345   1.261       .  A
C340       C1768   1.467       .  S
C341       C2088   1.471       .  S
O343        C346   1.271       .  A
O344        C346   1.291       .  A
C346       C1781   1.487       .  S
O347        C352   1.260       .  A
O348        C350   1.269       .  A
C349        O351   1.280   1_554  A
C349       C1811   1.450   1_554  S
C350       C1841   1.497       .  S
C352       C1791   1.506       .  S
Fe353       O369   2.053       .  S
Fe353       O359   2.143       .  S
Fe353       O366   2.123       .  S
Fe353       O358   1.996       .  S
Fe353       O364   1.920       .  S
Fe354       O357   2.031       .  S
Fe354       O361   2.091       .  S
Fe354       O365   2.040       .  S
Fe354       O370   2.070       .  S
Fe354       O364   1.919       .  S
Fe355       O373   2.074       .  S
Fe355       O360   2.090       .  S
Fe355       O367   1.998       .  S
Fe355       O356   2.128       .  S
Fe355       O364   1.948       .  S
O356        C363   1.278       .  A
O357        C371   1.270       .  A
O358        C363   1.245       .  A
O359        C362   1.282       .  A
O360        C372   1.276       .  A
O361        C374   1.270       .  A
C362        O367   1.259       .  A
C362       C1738   1.477   1_655  S
C363       C1938   1.474       .  S
O365        C368   1.269       .  A
O366        C368   1.285       .  A
C368       C2061   1.486       .  S
O369        C374   1.262       .  A
O370        C372   1.270       .  A
C371        O373   1.279       .  A
C371       C1748   1.442       .  S
C372       C2111   1.507       .  S
C374       C1758   1.485       .  S
Fe375       O391   2.050       .  S
Fe375       O381   2.162       .  S
Fe375       O388   2.115       .  S
Fe375       O380   1.997       .  S
Fe375       O386   1.927       .  S
Fe376       O379   2.028       .  S
Fe376       O383   2.094       .  S
Fe376       O387   2.042       .  S
Fe376       O392   2.089       .  S
Fe376       O386   1.928       .  S
Fe377       O395   2.077       .  S
Fe377       O382   2.091       .  S
Fe377       O389   1.997   1_455  S
Fe377       O378   2.140       .  S
Fe377       O386   1.962       .  S
O378        C385   1.273       .  A
O379        C393   1.267       .  A
O380        C385   1.239       .  A
O381        C384   1.290   1_455  A
O382        C394   1.281       .  A
O383        C396   1.273       .  A
C384        O389   1.261       .  A
C384       C1721   1.491       .  S
C385       C1898   1.490       .  S
O387        C390   1.269       .  A
O388        C390   1.283       .  A
C390       C1848   1.492       .  S
O391        C396   1.262       .  A
O392        C394   1.273       .  A
C393        O395   1.276       .  A
C393       C1751   1.450       .  S
C394       C1778   1.504       .  S
C396       C1728   1.479       .  S
Fe397       O413   2.064       .  S
Fe397       O403   2.103       .  S
Fe397       O410   2.116       .  S
Fe397       O402   2.004       .  S
Fe397       O408   1.948       .  S
Fe398       O401   2.053       .  S
Fe398       O405   2.045       .  S
Fe398       O409   2.072       .  S
Fe398       O414   2.039       .  S
Fe398       O408   1.952       .  S
Fe399       O417   2.006       .  S
Fe399       O404   2.090       .  S
Fe399       O411   2.065       .  S
Fe399       O400   2.072       .  S
Fe399       O408   1.959       .  S
O400        C407   1.267       .  A
O401        C415   1.272       .  A
O402        C407   1.254       .  A
O403        C406   1.284       .  A
O404        C416   1.272       .  A
O405        C418   1.259       .  A
C406        O411   1.273       .  A
C406       C1671   1.491       .  S
C407       C1988   1.464       .  S
O409        C412   1.280       .  A
O410        C412   1.289       .  A
C412       C1681   1.494       .  S
O413        C418   1.255       .  A
O414        C416   1.261       .  A
C415        O417   1.261       .  A
C415       C1698   1.454       .  S
C416       C1688   1.485       .  S
C418       C1708   1.500       .  S
Fe419       O435   2.046       .  S
Fe419       O425   2.114       .  S
Fe419       O432   2.142       .  S
Fe419       O424   1.999       .  S
Fe419       O430   1.941       .  S
Fe420       O423   2.028       .  S
Fe420       O427   2.082       .  S
Fe420       O431   2.041       .  S
Fe420       O436   2.090       .  S
Fe420       O430   1.959       .  S
Fe421       O439   2.054       .  S
Fe421       O426   2.083       .  S
Fe421       O433   2.026       .  S
Fe421       O422   2.096       .  S
Fe421       O430   1.951       .  S
O422        C429   1.274       .  A
O423        C437   1.268       .  A
O424        C429   1.254       .  A
O425        C428   1.283       .  A
O426        C438   1.269       .  A
O427        C440   1.262       .  A
C428        O433   1.263       .  A
C428       C1648   1.485       .  S
C429       C2038   1.465       .  S
O431        C434   1.277       .  A
O432        C434   1.295       .  A
C434       C2181   1.485       .  S
O435        C440   1.255       .  A
O436        C438   1.269       .  A
C437        O439   1.277       .  A
C437       C1701   1.429       .  S
C438       C2221   1.515       .  S
C440       C1658   1.502       .  S
Fe441       O457   2.055       .  S
Fe441       O447   2.168       .  S
Fe441       O454   2.117       .  S
Fe441       O446   1.994       .  S
Fe441       O452   1.924       .  S
Fe442       O445   2.018       .  S
Fe442       O449   2.101       .  S
Fe442       O453   2.031       .  S
Fe442       O458   2.087       .  S
Fe442       O452   1.930       .  S
Fe443       O461   2.069       .  S
Fe443       O448   2.108       .  S
Fe443       O455   2.013       .  S
Fe443       O444   2.143       .  S
Fe443       O452   1.964       .  S
O444        C451   1.273       .  A
O445        C459   1.266       .  A
O446        C451   1.237       .  A
O447        C450   1.291       .  A
O448        C460   1.283       .  A
O449        C462   1.273       .  A
C450        O455   1.264       .  A
C450       C1608   1.497       .  S
C451       C2191   1.491       .  S
O453        C456   1.268       .  A
O454        C456   1.283       .  A
C456       C1691   1.508       .  S
O457        C462   1.263       .  A
O458        C460   1.275       .  A
C459        O461   1.276       .  A
C459       C1628   1.443       .  S
C460       C1618   1.517       .  S
C462       C1638   1.482       .  S
Fe463       O479   2.046       .  S
Fe463       O469   2.113       .  S
Fe463       O476   2.154       .  S
Fe463       O468   1.981       .  S
Fe463       O474   1.939       .  S
Fe464       O467   2.014       .  S
Fe464       O471   2.088       .  S
Fe464       O475   2.030       .  S
Fe464       O480   2.094       .  S
Fe464       O474   1.954       .  S
Fe465       O483   2.083       .  S
Fe465       O470   2.068       .  S
Fe465       O477   2.014       .  S
Fe465       O466   2.095       .  S
Fe465       O474   1.942       .  S
O466        C473   1.273       .  A
O467        C481   1.269       .  A
O468        C473   1.252       .  A
O469        C472   1.280       .  A
O470        C482   1.263       .  A
O471        C484   1.265       .  A
C472        O477   1.263       .  A
C472       C1588   1.493       .  S
C473       C2241   1.451       .  S
O475        C478   1.275       .  A
O476        C478   1.297       .  A
C478       C2381   1.506       .  S
O479        C484   1.253       .  A
O480        C482   1.269       .  A
C481        O483   1.283       .  A
C481       C1631   1.439       .  S
C482       C2421   1.508       .  S
C484       C1598   1.504       .  S
Fe485       O501   2.065       .  S
Fe485       O491   2.159       .  S
Fe485       O498   2.128       .  S
Fe485       O490   2.001       .  S
Fe485       O496   1.920       .  S
Fe486       O489   2.019       .  S
Fe486       O493   2.110       .  S
Fe486       O497   2.047       .  S
Fe486       O502   2.095       .  S
Fe486       O496   1.931       .  S
Fe487       O505   2.064       .  S
Fe487       O492   2.088       .  S
Fe487       O499   2.020       .  S
Fe487       O488   2.138       .  S
Fe487       O496   1.961       .  S
O488        C495   1.273       .  A
O489        C503   1.263       .  A
O490        C495   1.244       .  A
O491        C494   1.290       .  A
O492        C504   1.279       .  A
O493        C506   1.276       .  A
C494        O499   1.263       .  A
C494       C1558   1.485       .  S
C495       C2391   1.484       .  S
O497        C500   1.269       .  A
O498        C500   1.285       .  A
C500       C1621   1.500       .  S
O501        C506   1.266       .  A
O502        C504   1.278       .  A
C503        O505   1.274       .  A
C503       C1571   1.438       .  S
C504       C1678   1.514       .  S
C506       C1578   1.492       .  S
Fe507       O523   2.044       .  S
Fe507       O513   2.152       .  S
Fe507       O520   2.125       .  S
Fe507       O512   1.982       .  S
Fe507       O518   1.913       .  S
Fe508       O511   2.026       .  S
Fe508       O515   2.084       .  S
Fe508       O519   2.024       .  S
Fe508       O524   2.077       .  S
Fe508       O518   1.921       .  S
Fe509       O527   2.068       .  S
Fe509       O514   2.094       .  S
Fe509       O521   2.023       .  S
Fe509       O510   2.143       .  S
Fe509       O518   1.950       .  S
O510        C517   1.276       .  A
O511        C525   1.266       .  A
O512        C517   1.237       .  A
O513        C516   1.284       .  A
O514        C526   1.281       .  A
O515        C528   1.272       .  A
C516        O521   1.263       .  A
C516       C1538   1.481       .  S
C517       C2438   1.473       .  S
O519        C522   1.268       .  A
O520        C522   1.285       .  A
C522       C1981   1.504       .  S
O523        C528   1.259       .  A
O524        C526   1.274       .  A
C525        O527   1.277       .  A
C525       C1568   1.440       .  S
C526       C2018   1.505       .  S
C528       C1548   1.487       .  S
Fe529       O545   2.081       .  S
Fe529       O535   1.995       .  S
Fe529       O542   2.075       .  S
Fe529       O534   2.083       .  S
Fe529       O540   1.925       .  S
Fe530       O533   2.123       .  S
Fe530       O537   2.060       .  S
Fe530       O541   2.139       .  S
Fe530       O546   1.993       .  S
Fe530       O540   1.923       .  S
Fe531       O549   2.087       .  S
Fe531       O536   2.130       .  S
Fe531       O543   2.037       .  S
Fe531       O532   2.091       .  S
Fe531       O540   1.927       .  S
O532        C539   1.277       .  A
O533        C547   1.296       .  A
O534        C539   1.276       .  A
O535        C538   1.261       .  A
O536        C548   1.277       .  A
O537        C550   1.256       .  A
C538        O543   1.271       .  A
C538       C1531   1.417       .  S
C539       C1508   1.518       .  S
O541        C544   1.290       .  A
O542        C544   1.278       .  A
C544       C1518   1.520       .  S
O545        C550   1.262       .  A
O546        C548   1.237       .  A
C547        O549   1.279       .  A
C547       C1931   1.503       .  S
C548       C1498   1.466       .  S
C550       C2301   1.492       .  S
Fe551       O567   2.054       .  S
Fe551       O557   2.013       .  S
Fe551       O564   2.046       .  S
Fe551       O556   2.081       .  S
Fe551       O562   1.941       .  S
Fe552       O555   2.139       .  S
Fe552       O559   2.028       .  S
Fe552       O563   2.144       .  S
Fe552       O568   1.974       .  S
Fe552       O562   1.928       .  S
Fe553       O571   2.050   1_554  S
Fe553       O558   2.074       .  S
Fe553       O565   2.035       .  S
Fe553       O554   2.085       .  S
Fe553       O562   1.949       .  S
O554        C561   1.273       .  A
O555        C569   1.292   1_554  A
O556        C561   1.268       .  A
O557        C560   1.262       .  A
O558        C570   1.268       .  A
O559        C572   1.247       .  A
C560        O565   1.272       .  A
C560       C1528   1.448   1_554  S
C561       C1478   1.492       .  S
O563        C566   1.300       .  A
O564        C566   1.276       .  A
C566       C1488   1.510       .  S
O567        C572   1.258       .  A
O568        C570   1.242       .  A
C569        O571   1.274       .  A
C569       C1601   1.504       .  S
C570       C1468   1.466       .  S
C572       C1828   1.479       .  S
Fe573       O589   2.090       .  S
Fe573       O579   2.001       .  S
Fe573       O586   2.011       .  S
Fe573       O578   2.109       .  S
Fe573       O584   1.931       .  S
Fe574       O577   2.174       .  S
Fe574       O581   2.083       .  S
Fe574       O585   2.174       .  S
Fe574       O590   2.015       .  S
Fe574       O584   1.921       .  S
Fe575       O593   2.004       .  S
Fe575       O580   2.137       .  S
Fe575       O587   2.071       .  S
Fe575       O576   2.097       .  S
Fe575       O584   1.946       .  S
O576        C583   1.282       .  A
O577        C591   1.293       .  A
O578        C583   1.277       .  A
O579        C582   1.254       .  A
O580        C592   1.278       .  A
O581        C594   1.264       .  A
C582        O587   1.275       .  A
C582       C1448   1.423       .  S
C583       C1458   1.500       .  S
O585        C588   1.298       .  A
O586        C588   1.267       .  A
C588       C1511   1.510       .  S
O589        C594   1.269       .  A
O590        C592   1.254       .  A
C591        O593   1.262       .  A
C591       C1821   1.503       .  S
C592       C1438   1.492       .  S
C594       C1611   1.508       .  S
Fe595       O611   2.087       .  S
Fe595       O601   2.059       .  S
Fe595       O608   2.051       .  S
Fe595       O600   2.055       .  S
Fe595       O606   1.919       .  S
Fe596       O599   2.155       .  S
Fe596       O603   2.051       .  S
Fe596       O607   2.139       .  S
Fe596       O612   1.988       .  S
Fe596       O606   1.921       .  S
Fe597       O615   2.030       .  S
Fe597       O602   2.120       .  S
Fe597       O609   2.031       .  S
Fe597       O598   2.104       .  S
Fe597       O606   1.955       .  S
O598        C605   1.286       .  A
O599        C613   1.286       .  A
O600        C605   1.269       .  A
O601        C604   1.275       .  A
O602        C614   1.276       .  A
O603        C616   1.258       .  A
C604        O609   1.264       .  A
C604       C1451   1.448       .  S
C605       C1431   1.510       .  S
O607        C610   1.290       .  A
O608        C610   1.272       .  A
C610       C1418   1.503       .  S
O611        C616   1.267       .  A
O612        C614   1.243       .  A
C613        O615   1.265       .  A
C613       C2431   1.506       .  S
C614       C1408   1.467       .  S
C616       C2201   1.493       .  S
Fe617       O633   2.086       .  S
Fe617       O623   2.034       .  S
Fe617       O630   2.049       .  S
Fe617       O622   2.062       .  S
Fe617       O628   1.949       .  S
Fe618       O621   2.105       .  S
Fe618       O625   2.006       .  S
Fe618       O629   2.147       .  S
Fe618       O634   1.954       .  S
Fe618       O628   1.923       .  S
Fe619       O637   2.044       .  S
Fe619       O624   2.109       .  S
Fe619       O631   2.062       .  S
Fe619       O620   2.093       .  S
Fe619       O628   1.945       .  S
O620        C627   1.273       .  A
O621        C635   1.278       .  A
O622        C627   1.262       .  A
O623        C626   1.272       .  A
O624        C636   1.277       .  A
O625        C638   1.242       .  A
C626        O631   1.283       .  A
C626       C1398   1.458       .  S
C627       C1388   1.496       .  S
O629        C632   1.295       .  A
O630        C632   1.275       .  A
C632       C1378   1.493       .  S
O633        C638   1.264       .  A
O634        C636   1.249       .  A
C635        O637   1.267       .  A
C635       C2311   1.485   1_655  S
C636       C1368   1.460       .  S
C638       C2101   1.484       .  S
Fe639       O655   2.062       .  S
Fe639       O645   2.018       .  S
Fe639       O652   2.066       .  S
Fe639       O644   2.056       .  S
Fe639       O650   1.935       .  S
Fe640       O643   2.096       .  S
Fe640       O647   2.056       .  S
Fe640       O651   2.084       .  S
Fe640       O656   2.011       .  S
Fe640       O650   1.931       .  S
Fe641       O659   2.079       .  S
Fe641       O646   2.129       .  S
Fe641       O653   2.055       .  S
Fe641       O642   2.113       .  S
Fe641       O650   1.930       .  S
O642        C649   1.278       .  A
O643        C657   1.284       .  A
O644        C649   1.269       .  A
O645        C648   1.264       .  A
O646        C658   1.285       .  A
O647        C660   1.259       .  A
C648        O653   1.274       .  A
C648       C1401   1.449       .  S
C649       C1358   1.505       .  S
O651        C654   1.275       .  A
O652        C654   1.272       .  A
C654       C1428   1.490       .  S
O655        C660   1.261       .  A
O656        C658   1.254       .  A
C657        O659   1.276       .  A
C657       C1661   1.488   1_455  S
C658       C1348   1.473       .  S
C660       C1771   1.489       .  S
Fe661       O677   2.088       .  S
Fe661       O667   2.004       .  S
Fe661       O674   2.029       .  S
Fe661       O666   2.078       .  S
Fe661       O672   1.948       .  S
Fe662       O665   2.137       .  S
Fe662       O669   2.057       .  S
Fe662       O673   2.151       .  S
Fe662       O678   2.007       .  S
Fe662       O672   1.924       .  S
Fe663       O681   2.024       .  S
Fe663       O668   2.112       .  S
Fe663       O675   2.059       .  S
Fe663       O664   2.098       .  S
Fe663       O672   1.949       .  S
O664        C671   1.280       .  A
O665        C679   1.284       .  A
O666        C671   1.268       .  A
O667        C670   1.265       .  A
O668        C680   1.277       .  A
O669        C682   1.256       .  A
C670        O675   1.274       .  A
C670       C1341   1.437       .  S
C671       C1421   1.490       .  S
O673        C676   1.294       .  A
O674        C676   1.271       .  A
C676       C1361   1.520       .  S
O677        C682   1.265       .  A
O678        C680   1.252       .  A
C679        O681   1.263       .  A
C679       C1731   1.479       .  S
C680       C1331   1.481       .  S
C682       C2351   1.484       .  S
Fe683       O699   2.062       .  S
Fe683       O689   2.001       .  S
Fe683       O696   2.038       .  S
Fe683       O688   2.078       .  S
Fe683       O694   1.967       .  S
Fe684       O687   2.106       .  S
Fe684       O691   2.040       .  S
Fe684       O695   2.123       .  S
Fe684       O700   1.983       .  S
Fe684       O694   1.954       .  S
Fe685       O703   2.048       .  S
Fe685       O690   2.097       .  S
Fe685       O697   2.060       .  S
Fe685       O686   2.083       .  S
Fe685       O694   1.961       .  S
O686        C693   1.270       .  A
O687        C701   1.282       .  A
O688        C693   1.267       .  A
O689        C692   1.263       .  A
O690        C702   1.273       .  A
O691        C704   1.253       .  A
C692        O697   1.276       .  A
C692       C1338   1.433       .  S
C693       C1311   1.508       .  S
O695        C698   1.288       .  A
O696        C698   1.273       .  A
C698       C1321   1.496       .  S
O699        C704   1.259       .  A
O700        C702   1.249       .  A
C701        O703   1.268       .  A
C701       C2271   1.488       .  S
C702       C1301   1.454       .  S
C704       C1871   1.470       .  S
Fe705       O721   2.052       .  S
Fe705       O711   2.035       .  S
Fe705       O718   2.055       .  S
Fe705       O710   2.054       .  S
Fe705       O716   1.964       .  S
Fe706       O709   2.123       .  S
Fe706       O713   2.039       .  S
Fe706       O717   2.133       .  S
Fe706       O722   1.990       .  S
Fe706       O716   1.953       .  S
Fe707       O725   2.075       .  S
Fe707       O712   2.094       .  S
Fe707       O719   2.016       .  S
Fe707       O708   2.119       .  S
Fe707       O716   1.960       .  S
O708        C715   1.282       .  A
O709        C723   1.287       .  A
O710        C715   1.263       .  A
O711        C714   1.267       .  A
O712        C724   1.274       .  A
O713        C726   1.253       .  A
C714        O719   1.262       .  A
C714       C1288   1.450       .  S
C715       C1281   1.497       .  S
O717        C720   1.292       .  A
O718        C720   1.277       .  A
C720       C1268   1.496       .  S
O721        C726   1.256       .  A
O722        C724   1.248       .  A
C723        O725   1.276       .  A
C723       C2128   1.502   1_565  S
C724       C1258   1.479   1_554  S
C726       C1911   1.492       .  S
Fe727       O743   2.087       .  S
Fe727       O733   2.013       .  S
Fe727       O740   2.034       .  S
Fe727       O732   2.087       .  S
Fe727       O738   1.964       .  S
Fe728       O731   2.109       .  S
Fe728       O735   2.039       .  S
Fe728       O739   2.150       .  S
Fe728       O744   1.997       .  S
Fe728       O738   1.945       .  S
Fe729       O747   2.033   1_545  S
Fe729       O734   2.106       .  S
Fe729       O741   2.050       .  S
Fe729       O730   2.099       .  S
Fe729       O738   1.957       .  S
O730        C737   1.276       .  A
O731        C745   1.280   1_545  A
O732        C737   1.269       .  A
O733        C736   1.261       .  A
O734        C746   1.279       .  A
O735        C748   1.251       .  A
C736        O741   1.275       .  A
C736       C1291   1.419       .  S
C737       C1238   1.506       .  S
O739        C742   1.295       .  A
O740        C742   1.272       .  A
C742       C1248   1.489       .  S
O743        C748   1.264       .  A
O744        C746   1.255       .  A
C745        O747   1.263       .  A
C745       C1551   1.488       .  S
C746       C1231   1.472       .  S
C748       C1718   1.498       .  S
Fe749       O765   2.073       .  S
Fe749       O755   2.021       .  S
Fe749       O762   2.049       .  S
Fe749       O754   2.065       .  S
Fe749       O760   1.958       .  S
Fe750       O753   2.115       .  S
Fe750       O757   2.049       .  S
Fe750       O761   2.150       .  S
Fe750       O766   1.979       .  S
Fe750       O760   1.946       .  S
Fe751       O769   2.059       .  S
Fe751       O756   2.097       .  S
Fe751       O763   2.056       .  S
Fe751       O752   2.098       .  S
Fe751       O760   1.958       .  S
O752        C759   1.272       .  A
O753        C767   1.283       .  A
O754        C759   1.265       .  A
O755        C758   1.267       .  A
O756        C768   1.273       .  A
O757        C770   1.253       .  A
C758        O763   1.279       .  A
C758       C1208   1.448       .  S
C759       C1218   1.504       .  S
O761        C764   1.296       .  A
O762        C764   1.277       .  A
C764       C1278   1.511       .  S
O765        C770   1.262       .  A
O766        C768   1.249       .  A
C767        O769   1.273       .  A
C767       C1888   1.503       .  S
C768       C1198   1.453       .  S
C770       C1561   1.493       .  S
Fe771       O787   2.049       .  S
Fe771       O777   2.025       .  S
Fe771       O784   2.068       .  S
Fe771       O776   2.066       .  S
Fe771       O782   1.932       .  S
Fe772       O775   2.127       .  S
Fe772       O779   2.068       .  S
Fe772       O783   2.125       .  S
Fe772       O788   2.007       .  S
Fe772       O782   1.935       .  S
Fe773       O791   2.058       .  S
Fe773       O778   2.072       .  S
Fe773       O785   2.031       .  S
Fe773       O774   2.089       .  S
Fe773       O782   1.942       .  S
O774        C781   1.270       .  A
O775        C789   1.284       .  A
O776        C781   1.271       .  A
O777        C780   1.264       .  A
O778        C790   1.274       .  A
O779        C792   1.261       .  A
C780        O785   1.269       .  A
C780       C1211   1.449       .  S
C781       C1491   1.500       .  S
O783        C786   1.285       .  A
O784        C786   1.270       .  A
C786       C1188   1.516       .  S
O787        C792   1.263       .  A
O788        C790   1.260       .  A
C789        O791   1.270       .  A
C789       C2031   1.512       .  S
C790       C1178   1.443       .  S
C792       C2398   1.493       .  S
Fe793       O809   2.085       .  S
Fe793       O799   2.020       .  S
Fe793       O806   2.016       .  S
Fe793       O798   2.087       .  S
Fe793       O804   1.936       .  S
Fe794       O797   2.156       .  S
Fe794       O801   2.067       .  S
Fe794       O805   2.154       .  S
Fe794       O810   2.007       .  S
Fe794       O804   1.927       .  S
Fe795       O813   2.013       .  S
Fe795       O800   2.137       .  S
Fe795       O807   2.079       .  S
Fe795       O796   2.093       .  S
Fe795       O804   1.927       .  S
O796        C803   1.277       .  A
O797        C811   1.286       .  A
O798        C803   1.273       .  A
O799        C802   1.265       .  A
O800        C812   1.284       .  A
O801        C814   1.263       .  A
C802        O807   1.281       .  A
C802       C1168   1.438       .  S
C803       C1191   1.504       .  S
O805        C808   1.293       .  A
O806        C808   1.266       .  A
C808       C1481   1.488       .  S
O809        C814   1.267       .  A
O810        C812   1.258       .  A
C811        O813   1.261       .  A
C811       C1788   1.504       .  S
C812       C1441   1.474       .  S
C814       C1948   1.499       .  S
Fe815       O831   2.074       .  S
Fe815       O821   2.033       .  S
Fe815       O828   2.043       .  S
Fe815       O820   2.069       .  S
Fe815       O826   1.947       .  S
Fe816       O819   2.112       .  S
Fe816       O823   2.034       .  S
Fe816       O827   2.152       .  S
Fe816       O832   2.001       .  S
Fe816       O826   1.931       .  S
Fe817       O835   2.020       .  S
Fe817       O822   2.094       .  S
Fe817       O829   2.066       .  S
Fe817       O818   2.081       .  S
Fe817       O826   1.952       .  S
O818        C825   1.274       .  A
O819        C833   1.281       .  A
O820        C825   1.266       .  A
O821        C824   1.269       .  A
O822        C834   1.275       .  A
O823        C836   1.250       .  A
C824        O829   1.273       .  A
C824       C1171   1.457       .  S
C825       C1158   1.490       .  S
O827        C830   1.296       .  A
O828        C830   1.277       .  A
C830       C1308   1.506       .  S
O831        C836   1.261       .  A
O832        C834   1.256       .  A
C833        O835   1.262       .  A
C833       C2488   1.468       .  S
C834       C1411   1.465       .  S
C836       C1741   1.487       .  S
Fe837       O853   2.092       .  S
Fe837       O843   2.010       .  S
Fe837       O850   2.025       .  S
Fe837       O842   2.086       .  S
Fe837       O848   1.961       .  S
Fe838       O841   2.116       .  S
Fe838       O845   2.035       .  S
Fe838       O849   2.136       .  S
Fe838       O854   1.992       .  S
Fe838       O848   1.947       .  S
Fe839       O857   2.012       .  S
Fe839       O844   2.117       .  S
Fe839       O851   2.074       .  S
Fe839       O840   2.082       .  S
Fe839       O848   1.943       .  S
O840        C847   1.270       .  A
O841        C855   1.278       .  A
O842        C847   1.268       .  A
O843        C846   1.264       .  A
O844        C856   1.282       .  A
O845        C858   1.253       .  A
C846        O851   1.280       .  A
C846       C1138   1.433       .  S
C847       C1148   1.493       .  S
O849        C852   1.290       .  A
O850        C852   1.268       .  A
C852       C1391   1.480       .  S
O853        C858   1.268       .  A
O854        C856   1.257       .  A
C855        O857   1.261       .  A
C855       C1761   1.486       .  S
C856       C1328   1.467       .  S
C858       C1668   1.480       .  S
Fe859       O875   2.057       .  S
Fe859       O865   2.031       .  S
Fe859       O872   2.089       .  S
Fe859       O864   2.058       .  S
Fe859       O870   1.925       .  S
Fe860       O863   2.087       .  S
Fe860       O867   2.043       .  S
Fe860       O871   2.106       .  S
Fe860       O876   1.999       .  S
Fe860       O870   1.934       .  S
Fe861       O879   2.088       .  S
Fe861       O866   2.103       .  S
Fe861       O873   2.046       .  S
Fe861       O862   2.104       .  S
Fe861       O870   1.944       .  S
O862        C869   1.274       .  A
O863        C877   1.281       .  A
O864        C869   1.264       .  A
O865        C868   1.274       .  A
O866        C878   1.273       .  A
O867        C880   1.250       .  A
C868        O873   1.272       .  A
C868       C1141   1.459       .  S
C869       C1251   1.500       .  S
O871        C874   1.291       .  A
O872        C874   1.287       .  A
C874       C1128   1.492       .  S
O875        C880   1.258       .  A
O876        C878   1.248       .  A
C877        O879   1.279       .  A
C877       C2231   1.480       .  S
C878       C1298   1.458       .  S
C880       C2001   1.490       .  S
Fe881       O897   2.052       .  S
Fe881       O887   2.022       .  S
Fe881       O894   2.077       .  S
Fe881       O886   2.058       .  S
Fe881       O892   1.930       .  S
Fe882       O885   2.115       .  S
Fe882       O889   2.075       .  S
Fe882       O893   2.141       .  S
Fe882       O898   2.009       .  S
Fe882       O892   1.932       .  S
Fe883       O901   2.079       .  S
Fe883       O888   2.114       .  S
Fe883       O895   2.043       .  S
Fe883       O884   2.096       .  S
Fe883       O892   1.935       .  S
O884        C891   1.274       .  A
O885        C899   1.289       .  A
O886        C891   1.268       .  A
O887        C890   1.265       .  A
O888        C900   1.278       .  A
O889        C902   1.258       .  A
C890        O895   1.275       .  A
C890       C1118   1.452       .  S
C891       C1131   1.504       .  S
O893        C896   1.293       .  A
O894        C896   1.280       .  A
C896       C1241   1.521       .  S
O897        C902   1.260       .  A
O898        C900   1.249       .  A
C899        O901   1.273       .  A
C899       C1861   1.502       .  S
C900       C1201   1.461       .  S
C902       C2151   1.504       .  S
Fe903       O919   2.048       .  S
Fe903       O909   2.031       .  S
Fe903       O916   2.062       .  S
Fe903       O908   2.060       .  S
Fe903       O914   1.940       .  S
Fe904       O907   2.085       .  S
Fe904       O911   2.038       .  S
Fe904       O915   2.118       .  S
Fe904       O920   2.006       .  S
Fe904       O914   1.948       .  S
Fe905       O923   2.050       .  S
Fe905       O910   2.095       .  S
Fe905       O917   2.041       .  S
Fe905       O906   2.062       .  S
Fe905       O914   1.941       .  S
O906        C913   1.263       .  A
O907        C921   1.278       .  A
O908        C913   1.264       .  A
O909        C912   1.270       .  A
O910        C922   1.271       .  A
O911        C924   1.251       .  A
C912        O917   1.278       .  A
C912       C1121   1.445       .  S
C913       C1318   1.482       .  S
O915        C918   1.290       .  A
O916        C918   1.279       .  A
C918       C1161   1.482       .  S
O919        C924   1.260       .  A
O920        C922   1.247       .  A
C921        O923   1.266       .  A
C921       C2081   1.485       .  S
C922       C1181   1.448       .  S
C924       C1801   1.487       .  S
Fe925       O941   2.087       .  S
Fe925       O931   2.022       .  S
Fe925       O938   2.036       .  S
Fe925       O930   2.098       .  S
Fe925       O936   1.948       .  S
Fe926       O929   2.113       .  S
Fe926       O933   2.024       .  S
Fe926       O937   2.141       .  S
Fe926       O942   1.978       .  S
Fe926       O936   1.931       .  S
Fe927       O945   2.010       .  S
Fe927       O932   2.095       .  S
Fe927       O939   2.069       .  S
Fe927       O928   2.071       .  S
Fe927       O936   1.930       .  S
O928        C935   1.266       .  A
O929        C943   1.279       .  A
O930        C935   1.268       .  A
O931        C934   1.270       .  A
O932        C944   1.276       .  A
O933        C946   1.248       .  A
C934        O939   1.283       .  A
C934       C1108   1.443       .  S
C935       C1088   1.496       .  S
O937        C940   1.295       .  A
O938        C940   1.278       .  A
C940       C1098   1.480       .  S
O941        C946   1.265       .  A
O942        C944   1.253       .  A
C943        O945   1.262       .  A
C943       C1968   1.493   1_556  S
C944       C1501   1.452       .  S
C946       C1651   1.475       .  S
Fe947       O963   2.066       .  S
Fe947       O953   2.029       .  S
Fe947       O960   2.078       .  S
Fe947       O952   2.063       .  S
Fe947       O958   1.943       .  S
Fe948       O951   2.111       .  S
Fe948       O955   2.065       .  S
Fe948       O959   2.107       .  S
Fe948       O964   1.982       .  S
Fe948       O958   1.942       .  S
Fe949       O967   2.064   1_554  S
Fe949       O954   2.088       .  S
Fe949       O961   2.025   1_554  S
Fe949       O950   2.111       .  S
Fe949       O958   1.951       .  S
O950        C957   1.279       .  A
O951        C965   1.285   1_554  A
O952        C957   1.273       .  A
O953        C956   1.262       .  A
O954        C966   1.278       .  A
O955        C968   1.261       .  A
C956        O961   1.266   1_554  A
C956       C1111   1.453   1_554  S
C957       C1271   1.509       .  S
O959        C962   1.280       .  A
O960        C962   1.272       .  A
C962       C1221   1.516       .  S
O963        C968   1.260       .  A
O964        C966   1.249       .  A
C965        O967   1.272       .  A
C965       C1641   1.482       .  S
C966       C1471   1.468       .  S
C968       C2051   1.499       .  S
Fe969       O985   2.094       .  S
Fe969       O975   2.024       .  S
Fe969       O982   2.026       .  S
Fe969       O974   2.102       .  S
Fe969       O980   1.934       .  S
Fe970       O973   2.157       .  S
Fe970       O977   2.029       .  S
Fe970       O981   2.151       .  S
Fe970       O986   1.989       .  S
Fe970       O980   1.919       .  S
Fe971       O989   2.006       .  S
Fe971       O976   2.148       .  S
Fe971       O983   2.075       .  S
Fe971       O972   2.089       .  S
Fe971       O980   1.927       .  S
O972        C979   1.279       .  A
O973        C987   1.284       .  A
O974        C979   1.276       .  A
O975        C978   1.263       .  A
O976        C988   1.284       .  A
O977        C990   1.255       .  A
C978        O983   1.278       .  A
C978       C1078   1.444       .  S
C979       C1071   1.497       .  S
O981        C984   1.293       .  A
O982        C984   1.269       .  A
C984       C1091   1.487       .  S
O985        C990   1.270       .  A
O986        C988   1.251       .  A
C987        O989   1.253       .  A
C987       C2168   1.502   1_565  S
C988       C1261   1.476       .  S
C990       C1591   1.482       .  S
Fe991      O1007   2.093       .  S
Fe991       O997   2.041       .  S
Fe991      O1004   2.035       .  S
Fe991       O996   2.086       .  S
Fe991      O1002   1.940       .  S
Fe992       O995   2.156       .  S
Fe992       O999   2.041       .  S
Fe992      O1003   2.143       .  S
Fe992      O1008   1.995       .  S
Fe992      O1002   1.919       .  S
Fe993      O1011   2.045   1_545  S
Fe993       O998   2.141       .  S
Fe993      O1005   2.061       .  S
Fe993       O994   2.109       .  S
Fe993      O1002   1.954       .  S
O994       C1001   1.286       .  A
O995       C1009   1.287   1_545  A
O996       C1001   1.274       .  A
O997       C1000   1.266       .  A
O998       C1010   1.277       .  A
O999       C1012   1.258       .  A
C1000      O1005   1.273       .  A
C1000      C1081   1.447       .  S
C1001      C1381   1.509       .  S
O1003      C1006   1.289       .  A
O1004      C1006   1.270       .  A
C1006      C1151   1.515       .  S
O1007      C1012   1.269       .  A
O1008      C1010   1.245       .  A
C1009      O1011   1.267       .  A
C1009      C1581   1.491       .  S
C1010      C1228   1.483       .  S
C1012      C2251   1.476       .  S
Fe1013     O1029   2.085       .  S
Fe1013     O1019   2.048       .  S
Fe1013     O1026   2.057       .  S
Fe1013     O1018   2.060       .  S
Fe1013     O1024   1.947       .  S
Fe1014     O1017   2.092       .  S
Fe1014     O1021   2.024       .  S
Fe1014     O1025   2.141       .  S
Fe1014     O1030   1.970       .  S
Fe1014     O1024   1.933       .  S
Fe1015     O1033   2.062   1_655  S
Fe1015     O1020   2.087       .  S
Fe1015     O1027   2.046       .  S
Fe1015     O1016   2.084       .  S
Fe1015     O1024   1.951       .  S
O1016      C1023   1.270       .  A
O1017      C1031   1.276   1_655  A
O1018      C1023   1.261       .  A
O1019      C1022   1.278       .  A
O1020      C1032   1.270       .  A
O1021      C1034   1.248       .  A
C1022      O1027   1.272       .  A
C1022      C1058   1.456       .  S
C1023      C1101   1.487       .  S
O1025      C1028   1.294       .  A
O1026      C1028   1.279       .  A
C1028      C1068   1.492       .  S
O1029      C1034   1.261       .  A
O1030      C1032   1.253       .  A
C1031      O1033   1.271       .  A
C1031      C2371   1.480       .  S
C1032      C1371   1.447       .  S
C1034      C1541   1.468       .  S
Fe1035     O1051   2.095       .  S
Fe1035     O1041   2.013       .  S
Fe1035     O1048   2.032       .  S
Fe1035     O1040   2.095       .  S
Fe1035     O1046   1.960       .  S
Fe1036     O1039   2.130       .  S
Fe1036     O1043   2.045       .  S
Fe1036     O1047   2.174       .  S
Fe1036     O1052   1.976       .  S
Fe1036     O1046   1.942       .  S
Fe1037     O1055   2.012   1_455  S
Fe1037     O1042   2.105       .  S
Fe1037     O1049   2.075       .  S
Fe1037     O1038   2.079       .  S
Fe1037     O1046   1.946       .  S
O1038      C1045   1.267       .  A
O1039      C1053   1.283   1_455  A
O1040      C1045   1.270       .  A
O1041      C1044   1.266       .  A
O1042      C1054   1.277       .  A
O1043      C1056   1.253       .  A
C1044      O1049   1.281       .  A
C1044      C1061   1.433       .  S
C1045      C1521   1.506       .  S
O1047      C1050   1.300       .  A
O1048      C1050   1.274       .  A
C1050      C1461   1.517       .  S
O1051      C1056   1.265       .  A
O1052      C1054   1.254       .  A
C1053      O1055   1.258       .  A
C1053      C1711   1.495       .  S
C1054      C1351   1.454       .  S
C1056      C2451   1.486       .  S
C1057      C1058   1.404       .  A
C1057      C1062   1.390       .  A
C1057      H1064   1.084       .  S
C1058      C1059   1.421   1_655  A
C1059      C1060   1.378       .  A
C1059     Br1066   1.930       .  S
C1060      C1061   1.388       .  A
C1060      H1065   1.086       .  S
C1061      C1062   1.400   1_455  A
C1062     Br1063   1.917       .  S
C1067      C1068   1.398       .  A
C1067      C1072   1.407       .  A
C1067      H1074   1.084       .  S
C1068      C1069   1.418       .  A
C1069      C1070   1.408       .  A
C1069     Br1076   1.914       .  S
C1070      C1071   1.401       .  A
C1070      H1075   1.083       .  S
C1071      C1072   1.420       .  A
C1072     Br1073   1.912       .  S
C1077      C1078   1.402       .  A
C1077      C1082   1.390   1_565  A
C1077      H1084   1.083       .  S
C1078      C1079   1.398       .  A
C1079      C1080   1.384       .  A
C1079     Br1086   1.919       .  S
C1080      C1081   1.402   1_565  A
C1080      H1085   1.083       .  S
C1081      C1082   1.402       .  A
C1082     Br1083   1.918       .  S
C1087      C1088   1.401       .  A
C1087      C1092   1.405       .  A
C1087      H1094   1.084       .  S
C1088      C1089   1.420       .  A
C1089      C1090   1.408       .  A
C1089     Br1096   1.916       .  S
C1090      C1091   1.400       .  A
C1090      H1095   1.084       .  S
C1091      C1092   1.416       .  A
C1092     Br1093   1.918       .  S
C1097      C1098   1.396       .  A
C1097      C1102   1.403       .  A
C1097      H1104   1.084       .  S
C1098      C1099   1.415       .  A
C1099      C1100   1.402       .  A
C1099     Br1106   1.912       .  S
C1100      C1101   1.398       .  A
C1100      H1105   1.083       .  S
C1101      C1102   1.421       .  A
C1102     Br1103   1.920       .  S
C1107      C1108   1.400       .  A
C1107      C1112   1.384   1_556  A
C1107      H1114   1.085       .  S
C1108      C1109   1.399       .  A
C1109      C1110   1.384       .  A
C1109     Br1116   1.920       .  S
C1110      C1111   1.406       .  A
C1110      H1115   1.083       .  S
C1111      C1112   1.410   1_556  A
C1112     Br1113   1.925       .  S
C1117      C1118   1.402       .  A
C1117      C1122   1.383       .  A
C1117      H1124   1.081       .  S
C1118      C1119   1.410       .  A
C1119      C1120   1.382       .  A
C1119     Br1126   1.925       .  S
C1120      C1121   1.400       .  A
C1120      H1125   1.085       .  S
C1121      C1122   1.405       .  A
C1122     Br1123   1.923       .  S
C1127      C1128   1.410       .  A
C1127      C1132   1.412       .  A
C1127      H1134   1.084       .  S
C1128      C1129   1.406       .  A
C1129      C1130   1.403       .  A
C1129     Br1136   1.919       .  S
C1130      C1131   1.414       .  A
C1130      H1135   1.084       .  S
C1131      C1132   1.416       .  A
C1132     Br1133   1.919       .  S
C1137      C1138   1.393       .  A
C1137      C1142   1.386       .  A
C1137      H1144   1.085       .  S
C1138      C1139   1.397       .  A
C1139      C1140   1.382       .  A
C1139     Br1146   1.917       .  S
C1140      C1141   1.405       .  A
C1140      H1145   1.083       .  S
C1141      C1142   1.417       .  A
C1142     Br1143   1.925       .  S
C1147      C1148   1.412       .  A
C1147      C1152   1.418       .  A
C1147      H1154   1.084       .  S
C1148      C1149   1.402       .  A
C1149      C1150   1.400       .  A
C1149     Br1156   1.920       .  S
C1150      C1151   1.417       .  A
C1150      H1155   1.083       .  S
C1151      C1152   1.418       .  A
C1152     Br1153   1.918       .  S
C1157      C1158   1.398       .  A
C1157      C1162   1.402       .  A
C1157      H1164   1.084       .  S
C1158      C1159   1.422       .  A
C1159      C1160   1.404       .  A
C1159     Br1166   1.923       .  S
C1160      C1161   1.398       .  A
C1160      H1165   1.084       .  S
C1161      C1162   1.415       .  A
C1162     Br1163   1.910       .  S
C1167      C1168   1.392       .  A
C1167      C1172   1.385       .  A
C1167      H1174   1.085       .  S
C1168      C1169   1.400       .  A
C1169      C1170   1.387       .  A
C1169     Br1176   1.917       .  S
C1170      C1171   1.402       .  A
C1170      H1175   1.082       .  S
C1171      C1172   1.414       .  A
C1172     Br1173   1.920       .  S
C1177      C1178   1.408       .  A
C1177      C1182   1.399       .  A
C1177      H1184   1.084       .  S
C1178      C1179   1.395       .  A
C1179      C1180   1.391       .  A
C1179     Br1186   1.912       .  S
C1180      C1181   1.407       .  A
C1180      H1185   1.082       .  S
C1181      C1182   1.404       .  A
C1182     Br1183   1.916       .  S
C1187      C1188   1.413       .  A
C1187      C1192   1.417       .  A
C1187      H1194   1.083       .  S
C1188      C1189   1.427       .  A
C1189      C1190   1.401       .  A
C1189     Br1196   1.926       .  S
C1190      C1191   1.402       .  A
C1190      H1195   1.084       .  S
C1191      C1192   1.415       .  A
C1192     Br1193   1.916       .  S
C1197      C1198   1.411       .  A
C1197      C1202   1.405       .  A
C1197      H1204   1.084       .  S
C1198      C1199   1.397       .  A
C1199      C1200   1.391       .  A
C1199     Br1206   1.917       .  S
C1200      C1201   1.406   1_565  A
C1200      H1205   1.077   1_565  S
C1201      C1202   1.406   1_545  A
C1202     Br1203   1.917   1_565  S
C1207      C1208   1.398       .  A
C1207      C1212   1.378       .  A
C1207      H1214   1.080       .  S
C1208      C1209   1.406       .  A
C1209      C1210   1.387       .  A
C1209     Br1216   1.921       .  S
C1210      C1211   1.403       .  A
C1210      H1215   1.084       .  S
C1211      C1212   1.409       .  A
C1212     Br1213   1.926       .  S
C1217      C1218   1.404       .  A
C1217      C1222   1.402       .  A
C1217      H1224   1.084       .  S
C1218      C1219   1.416       .  A
C1219      C1220   1.416       .  A
C1219     Br1226   1.919       .  S
C1220      C1221   1.415       .  A
C1220      H1225   1.083       .  S
C1221      C1222   1.424       .  A
C1222     Br1223   1.924       .  S
C1227      C1228   1.394   1_565  A
C1227      C1232   1.401       .  A
C1227      H1234   1.083       .  S
C1228      C1229   1.428       .  A
C1229      C1230   1.395       .  A
C1229     Br1236   1.915       .  S
C1230      C1231   1.386       .  A
C1230      H1235   1.084       .  S
C1231      C1232   1.423   1_545  A
C1232     Br1233   1.921       .  S
C1237      C1238   1.413       .  A
C1237      C1242   1.421       .  A
C1237      H1244   1.083       .  S
C1238      C1239   1.408       .  A
C1239      C1240   1.406       .  A
C1239     Br1246   1.920       .  S
C1240      C1241   1.415       .  A
C1240      H1245   1.082       .  S
C1241      C1242   1.417       .  A
C1242     Br1243   1.910       .  S
C1247      C1248   1.398       .  A
C1247      C1252   1.407       .  A
C1247      H1254   1.084       .  S
C1248      C1249   1.418       .  A
C1249      C1250   1.410       .  A
C1249     Br1256   1.917       .  S
C1250      C1251   1.402       .  A
C1250      H1255   1.083       .  S
C1251      C1252   1.423       .  A
C1252     Br1253   1.921       .  S
C1257      C1258   1.385       .  A
C1257      C1262   1.393       .  A
C1257      H1264   1.085   1_556  S
C1258      C1259   1.429       .  A
C1259      C1260   1.399       .  A
C1259     Br1266   1.923       .  S
C1260      C1261   1.391       .  A
C1260      H1265   1.084       .  S
C1261      C1262   1.427       .  A
C1262     Br1263   1.908       .  S
C1267      C1268   1.410       .  A
C1267      C1272   1.416       .  A
C1267      H1274   1.083       .  S
C1268      C1269   1.410       .  A
C1269      C1270   1.400       .  A
C1269     Br1276   1.922       .  S
C1270      C1271   1.411       .  A
C1270      H1275   1.083       .  S
C1271      C1272   1.420       .  A
C1272     Br1273   1.918       .  S
C1277      C1278   1.417       .  A
C1277      C1282   1.407       .  A
C1277      H1284   1.083       .  S
C1278      C1279   1.410       .  A
C1279      C1280   1.417       .  A
C1279     Br1286   1.916       .  S
C1280      C1281   1.416       .  A
C1280      H1285   1.082       .  S
C1281      C1282   1.405       .  A
C1282     Br1283   1.919       .  S
C1287      C1288   1.407       .  A
C1287      C1292   1.391       .  A
C1287      H1294   1.084       .  S
C1288      C1289   1.419       .  A
C1289      C1290   1.369   1_565  A
C1289     Br1296   1.926   1_565  S
C1290      C1291   1.385       .  A
C1290      H1295   1.087       .  S
C1291      C1292   1.397   1_545  A
C1292     Br1293   1.918       .  S
C1297      C1298   1.409       .  A
C1297      C1302   1.394       .  A
C1297      H1304   1.085       .  S
C1298      C1299   1.404       .  A
C1299      C1300   1.401       .  A
C1299     Br1306   1.919       .  S
C1300      C1301   1.410       .  A
C1300      H1305   1.082       .  S
C1301      C1302   1.400       .  A
C1302     Br1303   1.915       .  S
C1307      C1308   1.410       .  A
C1307      C1312   1.404       .  A
C1307      H1314   1.084       .  S
C1308      C1309   1.416       .  A
C1309      C1310   1.412       .  A
C1309     Br1316   1.919       .  S
C1310      C1311   1.413       .  A
C1310      H1315   1.083       .  S
C1311      C1312   1.417       .  A
C1312     Br1313   1.922       .  S
C1317      C1318   1.413       .  A
C1317      C1322   1.412       .  A
C1317      H1324   1.084       .  S
C1318      C1319   1.400       .  A
C1319      C1320   1.395       .  A
C1319     Br1326   1.920       .  S
C1320      C1321   1.414       .  A
C1320      H1325   1.083       .  S
C1321      C1322   1.411       .  A
C1322     Br1323   1.918       .  S
C1327      C1328   1.389       .  A
C1327      C1332   1.396       .  A
C1327      H1334   1.084       .  S
C1328      C1329   1.421       .  A
C1329      C1330   1.398   1_655  A
C1329     Br1336   1.918       .  S
C1330      C1331   1.394       .  A
C1330      H1335   1.083       .  S
C1331      C1332   1.426   1_455  A
C1332     Br1333   1.918   1_655  S
C1337      C1338   1.397       .  A
C1337      C1342   1.380       .  A
C1337      H1344   1.085       .  S
C1338      C1339   1.401       .  A
C1339      C1340   1.380       .  A
C1339     Br1346   1.910       .  S
C1340      C1341   1.398       .  A
C1340      H1345   1.084       .  S
C1341      C1342   1.405       .  A
C1342     Br1343   1.918       .  S
C1347      C1348   1.401       .  A
C1347      C1352   1.406       .  A
C1347      H1354   1.083   1_455  S
C1348      C1349   1.420       .  A
C1349      C1350   1.390       .  A
C1349     Br1356   1.907       .  S
C1350      C1351   1.391       .  A
C1350      H1355   1.086       .  S
C1351      C1352   1.416       .  A
C1352     Br1353   1.913   1_455  S
C1357      C1358   1.414       .  A
C1357      C1362   1.418       .  A
C1357      H1364   1.084       .  S
C1358      C1359   1.409       .  A
C1359      C1360   1.402       .  A
C1359     Br1366   1.924       .  S
C1360      C1361   1.418       .  A
C1360      H1365   1.083       .  S
C1361      C1362   1.419       .  A
C1362     Br1363   1.919       .  S
C1367      C1368   1.405   1_565  A
C1367      C1372   1.404       .  A
C1367      H1374   1.082   1_565  S
C1368      C1369   1.415   1_545  A
C1369      C1370   1.385       .  A
C1369     Br1376   1.920   1_565  S
C1370      C1371   1.397       .  A
C1370      H1375   1.086       .  S
C1371      C1372   1.409       .  A
C1372     Br1373   1.917   1_655  S
C1377      C1378   1.394       .  A
C1377      C1382   1.406       .  A
C1377      H1384   1.084       .  S
C1378      C1379   1.418       .  A
C1379      C1380   1.412       .  A
C1379     Br1386   1.916       .  S
C1380      C1381   1.404       .  A
C1380      H1385   1.084       .  S
C1381      C1382   1.428       .  A
C1382     Br1383   1.916       .  S
C1387      C1388   1.402       .  A
C1387      C1392   1.407       .  A
C1387      H1394   1.083       .  S
C1388      C1389   1.424       .  A
C1389      C1390   1.401       .  A
C1389     Br1396   1.914       .  S
C1390      C1391   1.393       .  A
C1390      H1395   1.084       .  S
C1391      C1392   1.416       .  A
C1392     Br1393   1.916       .  S
C1397      C1398   1.402   1_455  A
C1397      C1402   1.380       .  A
C1397      H1404   1.085       .  S
C1398      C1399   1.409       .  A
C1399      C1400   1.390       .  A
C1399     Br1406   1.922       .  S
C1400      C1401   1.402   1_655  A
C1400      H1405   1.083       .  S
C1401      C1402   1.409       .  A
C1402     Br1403   1.927       .  S
C1407      C1408   1.386       .  A
C1407      C1412   1.391       .  A
C1407      H1414   1.085       .  S
C1408      C1409   1.426       .  A
C1409      C1410   1.394       .  A
C1409     Br1416   1.921       .  S
C1410      C1411   1.388       .  A
C1410      H1415   1.085       .  S
C1411      C1412   1.423       .  A
C1412     Br1413   1.913       .  S
C1417      C1418   1.402       .  A
C1417      C1422   1.412       .  A
C1417      H1424   1.084       .  S
C1418      C1419   1.423       .  A
C1419      C1420   1.401       .  A
C1419     Br1426   1.901       .  S
C1420      C1421   1.391       .  A
C1420      H1425   1.085       .  S
C1421      C1422   1.420       .  A
C1422     Br1423   1.916       .  S
C1427      C1428   1.414       .  A
C1427      C1432   1.415       .  A
C1427      H1434   1.084       .  S
C1428      C1429   1.401       .  A
C1429      C1430   1.395       .  A
C1429     Br1436   1.922       .  S
C1430      C1431   1.419       .  A
C1430      H1435   1.083       .  S
C1431      C1432   1.414       .  A
C1432     Br1433   1.916       .  S
C1437      C1438   1.413       .  A
C1437      C1442   1.400       .  A
C1437      H1444   1.084       .  S
C1438      C1439   1.406       .  A
C1439      C1440   1.409       .  A
C1439     Br1446   1.916       .  S
C1440      C1441   1.415   1_556  A
C1440      H1445   1.084   1_556  S
C1441      C1442   1.400   1_554  A
C1442     Br1443   1.916   1_556  S
C1447      C1448   1.385       .  A
C1447      C1452   1.372       .  A
C1447      H1454   1.086       .  S
C1448      C1449   1.398       .  A
C1449      C1450   1.390       .  A
C1449     Br1456   1.917       .  S
C1450      C1451   1.404       .  A
C1450      H1455   1.084       .  S
C1451      C1452   1.422       .  A
C1452     Br1453   1.933       .  S
C1457      C1458   1.414       .  A
C1457      C1462   1.420       .  A
C1457      H1464   1.084       .  S
C1458      C1459   1.404       .  A
C1459      C1460   1.405       .  A
C1459     Br1466   1.919       .  S
C1460      C1461   1.418       .  A
C1460      H1465   1.084       .  S
C1461      C1462   1.415       .  A
C1462     Br1463   1.914       .  S
C1467      C1468   1.385       .  A
C1467      C1472   1.387       .  A
C1467      H1474   1.084       .  S
C1468      C1469   1.427       .  A
C1469      C1470   1.391       .  A
C1469     Br1476   1.923       .  S
C1470      C1471   1.388       .  A
C1470      H1475   1.084       .  S
C1471      C1472   1.431       .  A
C1472     Br1473   1.927   1_554  S
C1477      C1478   1.398       .  A
C1477      C1482   1.404       .  A
C1477      H1484   1.084       .  S
C1478      C1479   1.421       .  A
C1479      C1480   1.407       .  A
C1479     Br1486   1.917       .  S
C1480      C1481   1.398       .  A
C1480      H1485   1.084       .  S
C1481      C1482   1.419       .  A
C1482     Br1483   1.918       .  S
C1487      C1488   1.408       .  A
C1487      C1492   1.412       .  A
C1487      H1494   1.083       .  S
C1488      C1489   1.431       .  A
C1489      C1490   1.399       .  A
C1489     Br1496   1.929       .  S
C1490      C1491   1.398       .  A
C1490      H1495   1.084       .  S
C1491      C1492   1.422       .  A
C1492     Br1493   1.921       .  S
C1497      C1498   1.394       .  A
C1497      C1502   1.397   1_455  A
C1497      H1504   1.083       .  S
C1498      C1499   1.429       .  A
C1499      C1500   1.388   1_455  A
C1499     Br1506   1.927       .  S
C1500      C1501   1.385       .  A
C1500      H1505   1.083       .  S
C1501      C1502   1.418       .  A
C1502     Br1503   1.919       .  S
C1507      C1508   1.419       .  A
C1507      C1512   1.417       .  A
C1507      H1514   1.083       .  S
C1508      C1509   1.419       .  A
C1509      C1510   1.405       .  A
C1509     Br1516   1.922       .  S
C1510      C1511   1.411       .  A
C1510      H1515   1.084       .  S
C1511      C1512   1.413       .  A
C1512     Br1513   1.917       .  S
C1517      C1518   1.416       .  A
C1517      C1522   1.403       .  A
C1517      H1524   1.083       .  S
C1518      C1519   1.421       .  A
C1519      C1520   1.417       .  A
C1519     Br1526   1.914       .  S
C1520      C1521   1.411       .  A
C1520      H1525   1.083       .  S
C1521      C1522   1.410       .  A
C1522     Br1523   1.922       .  S
C1527      C1528   1.406       .  A
C1527      C1532   1.370       .  A
C1527      H1534   1.081       .  S
C1528      C1529   1.412       .  A
C1529      C1530   1.383       .  A
C1529     Br1536   1.923   1_556  S
C1530      C1531   1.394       .  A
C1530      H1535   1.085       .  S
C1531      C1532   1.394       .  A
C1532     Br1533   1.924       .  S
C1537      C1538   1.411       .  A
C1537      C1542   1.403       .  A
C1537      H1544   1.082       .  S
C1538      C1539   1.409       .  A
C1539      C1540   1.397       .  A
C1539     Br1546   1.907       .  S
C1540      C1541   1.400       .  A
C1540      H1545   1.084       .  S
C1541      C1542   1.403       .  A
C1542     Br1543   1.916       .  S
C1547      C1548   1.398       .  A
C1547      C1552   1.392       .  A
C1547      H1554   1.084       .  S
C1548      C1549   1.420       .  A
C1549      C1550   1.406       .  A
C1549     Br1556   1.922       .  S
C1550      C1551   1.403       .  A
C1550      H1555   1.083       .  S
C1551      C1552   1.421       .  A
C1552     Br1553   1.924       .  S
C1557      C1558   1.407       .  A
C1557      C1562   1.414       .  A
C1557      H1564   1.083       .  S
C1558      C1559   1.412       .  A
C1559      C1560   1.397       .  A
C1559     Br1566   1.917       .  S
C1560      C1561   1.402       .  A
C1560      H1565   1.084       .  S
C1561      C1562   1.417       .  A
C1562     Br1563   1.917       .  S
C1567      C1568   1.400       .  A
C1567      C1572   1.384       .  A
C1567      H1574   1.082       .  S
C1568      C1569   1.402       .  A
C1569      C1570   1.387       .  A
C1569     Br1576   1.920       .  S
C1570      C1571   1.401       .  A
C1570      H1575   1.084       .  S
C1571      C1572   1.400       .  A
C1572     Br1573   1.921       .  S
C1577      C1578   1.403       .  A
C1577      C1582   1.409       .  A
C1577      H1584   1.084       .  S
C1578      C1579   1.414       .  A
C1579      C1580   1.407       .  A
C1579     Br1586   1.916       .  S
C1580      C1581   1.403       .  A
C1580      H1585   1.084       .  S
C1581      C1582   1.415       .  A
C1582     Br1583   1.913       .  S
C1587      C1588   1.414       .  A
C1587      C1592   1.388       .  A
C1587      H1594   1.083       .  S
C1588      C1589   1.410       .  A
C1589      C1590   1.407       .  A
C1589     Br1596   1.918       .  S
C1590      C1591   1.414       .  A
C1590      H1595   1.083       .  S
C1591      C1592   1.405       .  A
C1592     Br1593   1.922       .  S
C1597      C1598   1.420       .  A
C1597      C1602   1.415       .  A
C1597      H1604   1.083       .  S
C1598      C1599   1.409       .  A
C1599      C1600   1.396       .  A
C1599     Br1606   1.923       .  S
C1600      C1601   1.411       .  A
C1600      H1605   1.075       .  S
C1601      C1602   1.408       .  A
C1602     Br1603   1.913       .  S
C1607      C1608   1.406       .  A
C1607      C1612   1.398       .  A
C1607      H1614   1.085       .  S
C1608      C1609   1.410       .  A
C1609      C1610   1.418       .  A
C1609     Br1616   1.915       .  S
C1610      C1611   1.417       .  A
C1610      H1615   1.083       .  S
C1611      C1612   1.417       .  A
C1612     Br1613   1.922       .  S
C1617      C1618   1.415       .  A
C1617      C1622   1.403       .  A
C1617      H1624   1.083       .  S
C1618      C1619   1.420       .  A
C1619      C1620   1.418       .  A
C1619     Br1626   1.918       .  S
C1620      C1621   1.412       .  A
C1620      H1625   1.083       .  S
C1621      C1622   1.408       .  A
C1622     Br1623   1.921       .  S
C1627      C1628   1.397       .  A
C1627      C1632   1.385       .  A
C1627      H1634   1.084       .  S
C1628      C1629   1.407       .  A
C1629      C1630   1.383       .  A
C1629     Br1636   1.913       .  S
C1630      C1631   1.394       .  A
C1630      H1635   1.085       .  S
C1631      C1632   1.402       .  A
C1632     Br1633   1.909       .  S
C1637      C1638   1.408       .  A
C1637      C1642   1.413       .  A
C1637      H1644   1.084       .  S
C1638      C1639   1.406       .  A
C1639      C1640   1.394       .  A
C1639     Br1646   1.918       .  S
C1640      C1641   1.403       .  A
C1640      H1645   1.082       .  S
C1641      C1642   1.411       .  A
C1642     Br1643   1.916       .  S
C1647      C1648   1.404       .  A
C1647      C1652   1.407       .  A
C1647      H1654   1.084       .  S
C1648      C1649   1.423       .  A
C1649      C1650   1.393       .  A
C1649     Br1656   1.928       .  S
C1650      C1651   1.395       .  A
C1650      H1655   1.085       .  S
C1651      C1652   1.414       .  A
C1652     Br1653   1.917       .  S
C1657      C1658   1.416       .  A
C1657      C1662   1.406       .  A
C1657      H1664   1.083       .  S
C1658      C1659   1.416       .  A
C1659      C1660   1.401       .  A
C1659     Br1666   1.923       .  S
C1660      C1661   1.408       .  A
C1660      H1665   1.084       .  S
C1661      C1662   1.405       .  A
C1662     Br1663   1.918       .  S
C1667      C1668   1.399       .  A
C1667      C1672   1.397       .  A
C1667      H1674   1.083       .  S
C1668      C1669   1.411       .  A
C1669      C1670   1.409       .  A
C1669     Br1676   1.916       .  S
C1670      C1671   1.407       .  A
C1670      H1675   1.083       .  S
C1671      C1672   1.418       .  A
C1672     Br1673   1.925       .  S
C1677      C1678   1.415       .  A
C1677      C1682   1.402       .  A
C1677      H1684   1.083       .  S
C1678      C1679   1.420       .  A
C1679      C1680   1.414       .  A
C1679     Br1686   1.919       .  S
C1680      C1681   1.410       .  A
C1680      H1685   1.084       .  S
C1681      C1682   1.406       .  A
C1682     Br1683   1.919       .  S
C1687      C1688   1.407       .  A
C1687      C1692   1.411       .  A
C1687      H1694   1.083       .  S
C1688      C1689   1.406       .  A
C1689      C1690   1.398       .  A
C1689     Br1696   1.923       .  S
C1690      C1691   1.415       .  A
C1690      H1695   1.083       .  S
C1691      C1692   1.420       .  A
C1692     Br1693   1.917       .  S
C1697      C1698   1.407       .  A
C1697      C1702   1.394       .  A
C1697      H1704   1.083       .  S
C1698      C1699   1.418       .  A
C1699      C1700   1.372       .  A
C1699     Br1706   1.933       .  S
C1700      C1701   1.388       .  A
C1700      H1705   1.082       .  S
C1701      C1702   1.400       .  A
C1702     Br1703   1.917       .  S
C1707      C1708   1.400       .  A
C1707      C1712   1.387       .  A
C1707      H1714   1.084       .  S
C1708      C1709   1.423       .  A
C1709      C1710   1.414       .  A
C1709     Br1716   1.919       .  S
C1710      C1711   1.406       .  A
C1710      H1715   1.084       .  S
C1711      C1712   1.423       .  A
C1712     Br1713   1.933       .  S
C1717      C1718   1.417       .  A
C1717      C1722   1.413       .  A
C1717      H1724   1.084       .  S
C1718      C1719   1.412       .  A
C1719      C1720   1.397       .  A
C1719     Br1726   1.921       .  S
C1720      C1721   1.409       .  A
C1720      H1725   1.085       .  S
C1721      C1722   1.407       .  A
C1722     Br1723   1.916       .  S
C1727      C1728   1.399       .  A
C1727      C1732   1.396       .  A
C1727      H1734   1.084       .  S
C1728      C1729   1.410       .  A
C1729      C1730   1.411       .  A
C1729     Br1736   1.917       .  S
C1730      C1731   1.408       .  A
C1730      H1735   1.082       .  S
C1731      C1732   1.410       .  A
C1732     Br1733   1.915       .  S
C1737      C1738   1.406       .  A
C1737      C1742   1.393       .  A
C1737      H1744   1.085       .  S
C1738      C1739   1.405       .  A
C1739      C1740   1.408       .  A
C1739     Br1746   1.916       .  S
C1740      C1741   1.415       .  A
C1740      H1745   1.083       .  S
C1741      C1742   1.411       .  A
C1742     Br1743   1.922       .  S
C1747      C1748   1.392       .  A
C1747      C1752   1.385       .  A
C1747      H1754   1.085       .  S
C1748      C1749   1.406   1_655  A
C1749      C1750   1.387       .  A
C1749     Br1756   1.912       .  S
C1750      C1751   1.397       .  A
C1750      H1755   1.084       .  S
C1751      C1752   1.408   1_455  A
C1752     Br1753   1.907       .  S
C1757      C1758   1.414       .  A
C1757      C1762   1.412       .  A
C1757      H1764   1.083       .  S
C1758      C1759   1.410       .  A
C1759      C1760   1.387       .  A
C1759     Br1766   1.923       .  S
C1760      C1761   1.407       .  A
C1760      H1765   1.084       .  S
C1761      C1762   1.408       .  A
C1762     Br1763   1.916       .  S
C1767      C1768   1.402       .  A
C1767      C1772   1.395       .  A
C1767      H1774   1.085       .  S
C1768      C1769   1.402       .  A
C1769      C1770   1.403       .  A
C1769     Br1776   1.917       .  S
C1770      C1771   1.413       .  A
C1770      H1775   1.083       .  S
C1771      C1772   1.417       .  A
C1772     Br1773   1.925       .  S
C1777      C1778   1.404       .  A
C1777      C1782   1.408       .  A
C1777      H1784   1.083       .  S
C1778      C1779   1.427       .  A
C1779      C1780   1.406       .  A
C1779     Br1786   1.922       .  S
C1780      C1781   1.397       .  A
C1780      H1785   1.084       .  S
C1781      C1782   1.414       .  A
C1782     Br1783   1.917       .  S
C1787      C1788   1.411       .  A
C1787      C1792   1.395       .  A
C1787      H1794   1.084       .  S
C1788      C1789   1.409       .  A
C1789      C1790   1.418       .  A
C1789     Br1796   1.915       .  S
C1790      C1791   1.420       .  A
C1790      H1795   1.083       .  S
C1791      C1792   1.414       .  A
C1792     Br1793   1.925       .  S
C1797      C1798   1.401       .  A
C1797      C1802   1.408       .  A
C1797      H1804   1.083   1_554  S
C1798      C1799   1.411       .  A
C1799      C1800   1.386       .  A
C1799     Br1806   1.925       .  S
C1800      C1801   1.403       .  A
C1800      H1805   1.084       .  S
C1801      C1802   1.422       .  A
C1802     Br1803   1.920       .  S
C1807      C1808   1.396       .  A
C1807      C1812   1.386       .  A
C1807      H1814   1.085       .  S
C1808      C1809   1.404       .  A
C1809      C1810   1.387   1_556  A
C1809     Br1816   1.915   1_556  S
C1810      C1811   1.399   1_554  A
C1810      H1815   1.084       .  S
C1811      C1812   1.408       .  A
C1812     Br1813   1.917       .  S
C1817      C1818   1.419       .  A
C1817      C1822   1.419       .  A
C1817      H1824   1.083       .  S
C1818      C1819   1.413       .  A
C1819      C1820   1.394       .  A
C1819     Br1826   1.924       .  S
C1820      C1821   1.411       .  A
C1820      H1825   1.084       .  S
C1821      C1822   1.409       .  A
C1822     Br1823   1.915       .  S
C1827      C1828   1.398       .  A
C1827      C1832   1.387       .  A
C1827      H1834   1.084       .  S
C1828      C1829   1.417       .  A
C1829      C1830   1.407       .  A
C1829     Br1836   1.919       .  S
C1830      C1831   1.402       .  A
C1830      H1835   1.083       .  S
C1831      C1832   1.415       .  A
C1832     Br1833   1.925       .  S
C1837      C1838   1.399       .  A
C1837      C1842   1.409       .  A
C1837      H1844   1.084       .  S
C1838      C1839   1.418       .  A
C1839      C1840   1.406       .  A
C1839     Br1846   1.912       .  S
C1840      C1841   1.399       .  A
C1840      H1845   1.084       .  S
C1841      C1842   1.421       .  A
C1842     Br1843   1.916       .  S
C1847      C1848   1.410       .  A
C1847      C1852   1.413       .  A
C1847      H1854   1.084       .  S
C1848      C1849   1.408       .  A
C1849      C1850   1.399       .  A
C1849     Br1856   1.921       .  S
C1850      C1851   1.412       .  A
C1850      H1855   1.083       .  S
C1851      C1852   1.419       .  A
C1852     Br1853   1.919       .  S
C1857      C1858   1.399       .  A
C1857      C1862   1.398       .  A
C1857      H1864   1.084       .  S
C1858      C1859   1.421       .  A
C1859      C1860   1.410       .  A
C1859     Br1866   1.920       .  S
C1860      C1861   1.405       .  A
C1860      H1865   1.084       .  S
C1861      C1862   1.427       .  A
C1862     Br1863   1.928       .  S
C1867      C1868   1.412       .  A
C1867      C1872   1.400       .  A
C1867      H1874   1.084       .  S
C1868      C1869   1.408       .  A
C1869      C1870   1.401       .  A
C1869     Br1876   1.911       .  S
C1870      C1871   1.404       .  A
C1870      H1875   1.085       .  S
C1871      C1872   1.400       .  A
C1872     Br1873   1.917       .  S
C1877      C1878   1.404   1_545  A
C1877      C1882   1.387       .  A
C1877      H1884   1.084       .  S
C1878      C1879   1.406       .  A
C1879      C1880   1.392       .  A
C1879     Br1886   1.920       .  S
C1880      C1881   1.402   1_565  A
C1880      H1885   1.085       .  S
C1881      C1882   1.401       .  A
C1882     Br1883   1.921       .  S
C1887      C1888   1.410       .  A
C1887      C1892   1.396       .  A
C1887      H1894   1.080       .  S
C1888      C1889   1.413       .  A
C1889      C1890   1.414       .  A
C1889     Br1896   1.917       .  S
C1890      C1891   1.415       .  A
C1890      H1895   1.083       .  S
C1891      C1892   1.410       .  A
C1892     Br1893   1.922       .  S
C1897      C1898   1.397       .  A
C1897      C1902   1.401   1_545  A
C1897      H1904   1.083       .  S
C1898      C1899   1.430   1_545  A
C1899      C1900   1.398       .  A
C1899     Br1906   1.922   1_565  S
C1900      C1901   1.390       .  A
C1900      H1905   1.084       .  S
C1901      C1902   1.420       .  A
C1902     Br1903   1.919   1_455  S
C1907      C1908   1.410       .  A
C1907      C1912   1.390       .  A
C1907      H1914   1.083       .  S
C1908      C1909   1.408       .  A
C1909      C1910   1.407       .  A
C1909     Br1916   1.917       .  S
C1910      C1911   1.415       .  A
C1910      H1915   1.083       .  S
C1911      C1912   1.413       .  A
C1912     Br1913   1.927       .  S
C1917      C1918   1.409       .  A
C1917      C1922   1.414       .  A
C1917      H1924   1.084       .  S
C1918      C1919   1.402       .  A
C1919      C1920   1.396       .  A
C1919     Br1926   1.921       .  S
C1920      C1921   1.415       .  A
C1920      H1925   1.083       .  S
C1921      C1922   1.417       .  A
C1922     Br1923   1.917       .  S
C1927      C1928   1.401       .  A
C1927      C1932   1.399       .  A
C1927      H1934   1.083       .  S
C1928      C1929   1.426       .  A
C1929      C1930   1.413       .  A
C1929     Br1936   1.920       .  S
C1930      C1931   1.404   1_554  A
C1930      H1935   1.083   1_554  S
C1931      C1932   1.425   1_556  A
C1932     Br1933   1.924       .  S
C1937      C1938   1.393       .  A
C1937      C1942   1.396       .  A
C1937      H1944   1.084       .  S
C1938      C1939   1.428       .  A
C1939      C1940   1.392       .  A
C1939     Br1946   1.921       .  S
C1940      C1941   1.386       .  A
C1940      H1945   1.085       .  S
C1941      C1942   1.419       .  A
C1942     Br1943   1.918   1_655  S
C1947      C1948   1.415       .  A
C1947      C1952   1.411       .  A
C1947      H1954   1.084       .  S
C1948      C1949   1.413       .  A
C1949      C1950   1.394       .  A
C1949     Br1956   1.926       .  S
C1950      C1951   1.407       .  A
C1950      H1955   1.080       .  S
C1951      C1952   1.414       .  A
C1952     Br1953   1.918       .  S
C1957      C1958   1.406       .  A
C1957      C1962   1.390   1_655  A
C1957      H1964   1.083       .  S
C1958      C1959   1.422   1_655  A
C1959      C1960   1.378       .  A
C1959     Br1966   1.929       .  S
C1960      C1961   1.387       .  A
C1960      H1965   1.086       .  S
C1961      C1962   1.399       .  A
C1962     Br1963   1.918   1_455  S
C1967      C1968   1.411       .  A
C1967      C1972   1.386       .  A
C1967      H1974   1.083       .  S
C1968      C1969   1.410       .  A
C1969      C1970   1.408       .  A
C1969     Br1976   1.917   1_554  S
C1970      C1971   1.415       .  A
C1970      H1975   1.083       .  S
C1971      C1972   1.413       .  A
C1972     Br1973   1.930       .  S
C1977      C1978   1.409       .  A
C1977      C1982   1.417       .  A
C1977      H1984   1.084       .  S
C1978      C1979   1.411       .  A
C1979      C1980   1.392       .  A
C1979     Br1986   1.922       .  S
C1980      C1981   1.407       .  A
C1980      H1985   1.084       .  S
C1981      C1982   1.421       .  A
C1982     Br1983   1.917       .  S
C1987      C1988   1.414       .  A
C1987      C1992   1.395       .  A
C1987      H1994   1.085       .  S
C1988      C1989   1.395       .  A
C1989      C1990   1.392       .  A
C1989     Br1996   1.917       .  S
C1990      C1991   1.415       .  A
C1990      H1995   1.084       .  S
C1991      C1992   1.401       .  A
C1992     Br1993   1.920       .  S
C1997      C1998   1.404       .  A
C1997      C2002   1.409       .  A
C1997      H2004   1.084       .  S
C1998      C1999   1.408       .  A
C1999      C2000   1.393       .  A
C1999     Br2006   1.913       .  S
C2000      C2001   1.403       .  A
C2000      H2005   1.084       .  S
C2001      C2002   1.419       .  A
C2002     Br2003   1.919       .  S
C2007      C2008   1.409       .  A
C2007      C2012   1.416       .  A
C2007      H2014   1.083       .  S
C2008      C2009   1.410       .  A
C2009      C2010   1.397       .  A
C2009     Br2016   1.924       .  S
C2010      C2011   1.410       .  A
C2010      H2015   1.083       .  S
C2011      C2012   1.420       .  A
C2012     Br2013   1.919       .  S
C2017      C2018   1.418       .  A
C2017      C2022   1.400       .  A
C2017      H2024   1.083       .  S
C2018      C2019   1.415       .  A
C2019      C2020   1.410       .  A
C2019     Br2026   1.919       .  S
C2020      C2021   1.409       .  A
C2020      H2025   1.083       .  S
C2021      C2022   1.399       .  A
C2022     Br2023   1.918       .  S
C2027      C2028   1.415       .  A
C2027      C2032   1.419       .  A
C2027      H2034   1.083       .  S
C2028      C2029   1.411       .  A
C2029      C2030   1.391       .  A
C2029     Br2036   1.926       .  S
C2030      C2031   1.413       .  A
C2030      H2035   1.083       .  S
C2031      C2032   1.416       .  A
C2032     Br2033   1.917       .  S
C2037      C2038   1.387       .  A
C2037      C2042   1.394       .  A
C2037      H2044   1.084       .  S
C2038      C2039   1.419       .  A
C2039      C2040   1.399       .  A
C2039     Br2046   1.918       .  S
C2040      C2041   1.396   1_556  A
C2040      H2045   1.083   1_556  S
C2041      C2042   1.430   1_554  A
C2042     Br2043   1.922   1_556  S
C2047      C2048   1.401       .  A
C2047      C2052   1.399       .  A
C2047      H2054   1.085       .  S
C2048      C2049   1.406       .  A
C2049      C2050   1.407       .  A
C2049     Br2056   1.917       .  S
C2050      C2051   1.413       .  A
C2050      H2055   1.084       .  S
C2051      C2052   1.420       .  A
C2052     Br2053   1.922       .  S
C2057      C2058   1.415       .  A
C2057      C2062   1.406       .  A
C2057      H2064   1.084       .  S
C2058      C2059   1.409       .  A
C2059      C2060   1.407       .  A
C2059     Br2066   1.917       .  S
C2060      C2061   1.410       .  A
C2060      H2065   1.085       .  S
C2061      C2062   1.403       .  A
C2062     Br2063   1.917       .  S
C2067      C2068   1.393       .  A
C2067      C2072   1.385       .  A
C2067      H2074   1.085       .  S
C2068      C2069   1.404       .  A
C2069      C2070   1.386       .  A
C2069     Br2076   1.910       .  S
C2070      C2071   1.397       .  A
C2070      H2075   1.084       .  S
C2071      C2072   1.411       .  A
C2072     Br2073   1.912       .  S
C2077      C2078   1.394       .  A
C2077      C2082   1.384       .  A
C2077      H2084   1.084       .  S
C2078      C2079   1.411       .  A
C2079      C2080   1.406       .  A
C2079     Br2086   1.918       .  S
C2080      C2081   1.408       .  A
C2080      H2085   1.083       .  S
C2081      C2082   1.424       .  A
C2082     Br2083   1.930       .  S
C2087      C2088   1.414   1_556  A
C2087      C2092   1.403   1_455  A
C2087      H2094   1.082       .  S
C2088      C2089   1.396       .  A
C2089      C2090   1.397   1_455  A
C2089     Br2096   1.915       .  S
C2090      C2091   1.414       .  A
C2090      H2095   1.082       .  S
C2091      C2092   1.400   1_554  A
C2092     Br2093   1.917       .  S
C2097      C2098   1.395       .  A
C2097      C2102   1.402       .  A
C2097      H2104   1.082       .  S
C2098      C2099   1.417       .  A
C2099      C2100   1.392       .  A
C2099     Br2106   1.925       .  S
C2100      C2101   1.398       .  A
C2100      H2105   1.084       .  S
C2101      C2102   1.426       .  A
C2102     Br2103   1.923       .  S
C2107      C2108   1.409       .  A
C2107      C2112   1.415       .  A
C2107      H2114   1.084       .  S
C2108      C2109   1.406       .  A
C2109      C2110   1.396       .  A
C2109     Br2116   1.922       .  S
C2110      C2111   1.413       .  A
C2110      H2115   1.084       .  S
C2111      C2112   1.419       .  A
C2112     Br2113   1.918       .  S
C2117      C2118   1.408       .  A
C2117      C2122   1.399       .  A
C2117      H2124   1.084       .  S
C2118      C2119   1.402       .  A
C2119      C2120   1.400       .  A
C2119     Br2126   1.918       .  S
C2120      C2121   1.411       .  A
C2120      H2125   1.084       .  S
C2121      C2122   1.405       .  A
C2122     Br2123   1.919       .  S
C2127      C2128   1.407       .  A
C2127      C2132   1.417       .  A
C2127      H2134   1.083       .  S
C2128      C2129   1.415       .  A
C2129      C2130   1.390       .  A
C2129     Br2136   1.893       .  S
C2130      C2131   1.394       .  A
C2130      H2135   1.084       .  S
C2131      C2132   1.423       .  A
C2132     Br2133   1.916       .  S
C2137      C2138   1.414       .  A
C2137      C2142   1.400       .  A
C2137      H2144   1.082       .  S
C2138      C2139   1.401       .  A
C2139      C2140   1.405       .  A
C2139     Br2146   1.917       .  S
C2140      C2141   1.415       .  A
C2140      H2145   1.083       .  S
C2141      C2142   1.398       .  A
C2142     Br2143   1.915       .  S
C2147      C2148   1.404       .  A
C2147      C2152   1.416       .  A
C2147      H2154   1.083   1_554  S
C2148      C2149   1.413       .  A
C2149      C2150   1.390       .  A
C2149     Br2156   1.925       .  S
C2150      C2151   1.405       .  A
C2150      H2155   1.083       .  S
C2151      C2152   1.425       .  A
C2152     Br2153   1.918       .  S
C2157      C2158   1.401       .  A
C2157      C2162   1.387   1_556  A
C2157      H2164   1.085       .  S
C2158      C2159   1.403       .  A
C2159      C2160   1.387       .  A
C2159     Br2166   1.921       .  S
C2160      C2161   1.400       .  A
C2160      H2165   1.085       .  S
C2161      C2162   1.401   1_556  A
C2162     Br2163   1.920       .  S
C2167      C2168   1.407       .  A
C2167      C2172   1.416       .  A
C2167      H2174   1.083       .  S
C2168      C2169   1.426       .  A
C2169      C2170   1.391       .  A
C2169     Br2176   1.931       .  S
C2170      C2171   1.400       .  A
C2170      H2175   1.083       .  S
C2171      C2172   1.424       .  A
C2172     Br2173   1.919       .  S
C2177      C2178   1.415       .  A
C2177      C2182   1.400       .  A
C2177      H2184   1.083       .  S
C2178      C2179   1.418       .  A
C2179      C2180   1.413       .  A
C2179     Br2186   1.918       .  S
C2180      C2181   1.409       .  A
C2180      H2185   1.084       .  S
C2181      C2182   1.404       .  A
C2182     Br2183   1.920       .  S
C2187      C2188   1.388       .  A
C2187      C2192   1.396       .  A
C2187      H2194   1.084       .  S
C2188      C2189   1.418       .  A
C2189      C2190   1.402       .  A
C2189     Br2196   1.918       .  S
C2190      C2191   1.398       .  A
C2190      H2195   1.083       .  S
C2191      C2192   1.431       .  A
C2192     Br2193   1.921       .  S
C2197      C2198   1.414       .  A
C2197      C2202   1.390       .  A
C2197      H2204   1.083       .  S
C2198      C2199   1.412       .  A
C2199      C2200   1.413       .  A
C2199     Br2206   1.917       .  S
C2200      C2201   1.415       .  A
C2200      H2205   1.083       .  S
C2201      C2202   1.409       .  A
C2202     Br2203   1.926       .  S
C2207      C2208   1.401       .  A
C2207      C2212   1.395       .  A
C2207      H2214   1.084       .  S
C2208      C2209   1.419       .  A
C2209      C2210   1.414       .  A
C2209     Br2216   1.920       .  S
C2210      C2211   1.409       .  A
C2210      H2215   1.084       .  S
C2211      C2212   1.422       .  A
C2212     Br2213   1.927       .  S
C2217      C2218   1.410       .  A
C2217      C2222   1.416       .  A
C2217      H2224   1.084       .  S
C2218      C2219   1.407       .  A
C2219      C2220   1.404       .  A
C2219     Br2226   1.919       .  S
C2220      C2221   1.414       .  A
C2220      H2225   1.083       .  S
C2221      C2222   1.420       .  A
C2222     Br2223   1.919       .  S
C2227      C2228   1.406       .  A
C2227      C2232   1.412       .  A
C2227      H2234   1.083       .  S
C2228      C2229   1.409       .  A
C2229      C2230   1.393       .  A
C2229     Br2236   1.915       .  S
C2230      C2231   1.400       .  A
C2230      H2235   1.084       .  S
C2231      C2232   1.414       .  A
C2232     Br2233   1.917       .  S
C2237      C2238   1.411   1_565  A
C2237      C2242   1.388       .  A
C2237      H2244   1.085       .  S
C2238      C2239   1.408   1_545  A
C2239      C2240   1.406       .  A
C2239     Br2246   1.917   1_565  S
C2240      C2241   1.411       .  A
C2240      H2245   1.084       .  S
C2241      C2242   1.396       .  A
C2242     Br2243   1.914       .  S
C2247      C2248   1.407       .  A
C2247      C2252   1.403       .  A
C2247      H2254   1.084       .  S
C2248      C2249   1.403       .  A
C2249      C2250   1.400       .  A
C2249     Br2256   1.919       .  S
C2250      C2251   1.406       .  A
C2250      H2255   1.082       .  S
C2251      C2252   1.405       .  A
C2252     Br2253   1.918       .  S
C2257      C2258   1.404       .  A
C2257      C2262   1.384       .  A
C2257      H2264   1.084       .  S
C2258      C2259   1.416       .  A
C2259      C2260   1.383       .  A
C2259     Br2266   1.926       .  S
C2260      C2261   1.393       .  A
C2260      H2265   1.085       .  S
C2261      C2262   1.400       .  A
C2262     Br2263   1.916       .  S
C2267      C2268   1.399       .  A
C2267      C2272   1.394       .  A
C2267      H2274   1.084       .  S
C2268      C2269   1.419       .  A
C2269      C2270   1.409       .  A
C2269     Br2276   1.920       .  S
C2270      C2271   1.405       .  A
C2270      H2275   1.084       .  S
C2271      C2272   1.418       .  A
C2272     Br2273   1.923       .  S
C2277      C2278   1.402       .  A
C2277      C2282   1.408       .  A
C2277      H2284   1.083       .  S
C2278      C2279   1.427       .  A
C2279      C2280   1.405       .  A
C2279     Br2286   1.919       .  S
C2280      C2281   1.395       .  A
C2280      H2285   1.084       .  S
C2281      C2282   1.417       .  A
C2282     Br2283   1.915       .  S
C2287      C2288   1.391       .  A
C2287      C2292   1.399       .  A
C2287      H2294   1.084   1_545  S
C2288      C2289   1.429       .  A
C2289      C2290   1.400   1_556  A
C2289     Br2296   1.921       .  S
C2290      C2291   1.390       .  A
C2290      H2295   1.085       .  S
C2291      C2292   1.428   1_554  A
C2292     Br2293   1.921   1_545  S
C2297      C2298   1.406       .  A
C2297      C2302   1.409       .  A
C2297      H2304   1.083       .  S
C2298      C2299   1.410       .  A
C2299      C2300   1.401       .  A
C2299     Br2306   1.913       .  S
C2300      C2301   1.405       .  A
C2300      H2305   1.084       .  S
C2301      C2302   1.415       .  A
C2302     Br2303   1.920       .  S
C2307      C2308   1.400       .  A
C2307      C2312   1.393       .  A
C2307      H2314   1.083       .  S
C2308      C2309   1.411       .  A
C2309      C2310   1.411       .  A
C2309     Br2316   1.916       .  S
C2310      C2311   1.408       .  A
C2310      H2315   1.084       .  S
C2311      C2312   1.413       .  A
C2312     Br2313   1.922       .  S
C2317      C2318   1.417       .  A
C2317      C2322   1.397       .  A
C2317      H2324   1.083       .  S
C2318      C2319   1.420       .  A
C2319      C2320   1.418       .  A
C2319     Br2326   1.918       .  S
C2320      C2321   1.411       .  A
C2320      H2325   1.084       .  S
C2321      C2322   1.403       .  A
C2322     Br2323   1.921       .  S
C2327      C2328   1.418       .  A
C2327      C2332   1.399       .  A
C2327      H2334   1.083       .  S
C2328      C2329   1.418       .  A
C2329      C2330   1.416       .  A
C2329     Br2336   1.917       .  S
C2330      C2331   1.412       .  A
C2330      H2335   1.084       .  S
C2331      C2332   1.403       .  A
C2332     Br2333   1.920       .  S
C2337      C2338   1.413       .  A
C2337      C2342   1.405       .  A
C2337      H2344   1.084       .  S
C2338      C2339   1.397       .  A
C2339      C2340   1.396       .  A
C2339     Br2346   1.915       .  S
C2340      C2341   1.411       .  A
C2340      H2345   1.084       .  S
C2341      C2342   1.402       .  A
C2342     Br2343   1.916       .  S
C2347      C2348   1.398       .  A
C2347      C2352   1.401       .  A
C2347      H2354   1.084       .  S
C2348      C2349   1.413       .  A
C2349      C2350   1.406       .  A
C2349     Br2356   1.915   1_545  S
C2350      C2351   1.401       .  A
C2350      H2355   1.084       .  S
C2351      C2352   1.415       .  A
C2352     Br2353   1.912       .  S
C2357      C2358   1.402       .  A
C2357      C2362   1.390       .  A
C2357      H2364   1.083       .  S
C2358      C2359   1.417   1_565  A
C2359      C2360   1.382       .  A
C2359     Br2366   1.924       .  S
C2360      C2361   1.390       .  A
C2360      H2365   1.085       .  S
C2361      C2362   1.399   1_545  A
C2362     Br2363   1.910       .  S
C2367      C2368   1.409       .  A
C2367      C2372   1.405       .  A
C2367      H2374   1.083       .  S
C2368      C2369   1.405       .  A
C2369      C2370   1.400       .  A
C2369     Br2376   1.919       .  S
C2370      C2371   1.405       .  A
C2370      H2375   1.080       .  S
C2371      C2372   1.406       .  A
C2372     Br2373   1.917       .  S
C2377      C2378   1.412       .  A
C2377      C2382   1.414       .  A
C2377      H2384   1.084       .  S
C2378      C2379   1.402       .  A
C2379      C2380   1.401       .  A
C2379     Br2386   1.919       .  S
C2380      C2381   1.416       .  A
C2380      H2385   1.084       .  S
C2381      C2382   1.412       .  A
C2382     Br2383   1.914       .  S
C2387      C2388   1.414       .  A
C2387      C2392   1.403       .  A
C2387      H2394   1.084       .  S
C2388      C2389   1.396       .  A
C2389      C2390   1.397       .  A
C2389     Br2396   1.916       .  S
C2390      C2391   1.416       .  A
C2390      H2395   1.084       .  S
C2391      C2392   1.403       .  A
C2392     Br2393   1.917       .  S
C2397      C2398   1.406       .  A
C2397      C2402   1.389       .  A
C2397      H2404   1.083       .  S
C2398      C2399   1.422       .  A
C2399      C2400   1.409       .  A
C2399     Br2406   1.919       .  S
C2400      C2401   1.402       .  A
C2400      H2405   1.084       .  S
C2401      C2402   1.410       .  A
C2402     Br2403   1.925       .  S
C2407      C2408   1.405       .  A
C2407      C2412   1.405       .  A
C2407      H2414   1.084       .  S
C2408      C2409   1.427       .  A
C2409      C2410   1.407       .  A
C2409     Br2416   1.921       .  S
C2410      C2411   1.398       .  A
C2410      H2415   1.084       .  S
C2411      C2412   1.411       .  A
C2412     Br2413   1.911       .  S
C2417      C2418   1.406       .  A
C2417      C2422   1.409       .  A
C2417      H2424   1.084       .  S
C2418      C2419   1.406       .  A
C2419      C2420   1.405       .  A
C2419     Br2426   1.918       .  S
C2420      C2421   1.413       .  A
C2420      H2425   1.084       .  S
C2421      C2422   1.421       .  A
C2422     Br2423   1.922       .  S
C2427      C2428   1.413       .  A
C2427      C2432   1.412       .  A
C2427      H2434   1.084       .  S
C2428      C2429   1.406       .  A
C2429      C2430   1.399       .  A
C2429     Br2436   1.922       .  S
C2430      C2431   1.412       .  A
C2430      H2435   1.079       .  S
C2431      C2432   1.412       .  A
C2432     Br2433   1.912       .  S
C2437      C2438   1.389       .  A
C2437      C2442   1.396   1_655  A
C2437      H2444   1.084       .  S
C2438      C2439   1.429       .  A
C2439      C2440   1.393   1_655  A
C2439     Br2446   1.919       .  S
C2440      C2441   1.386       .  A
C2440      H2445   1.085       .  S
C2441      C2442   1.425       .  A
C2442     Br2443   1.916       .  S
C2447      C2448   1.412       .  A
C2447      C2452   1.413       .  A
C2447      H2454   1.084       .  S
C2448      C2449   1.413       .  A
C2449      C2450   1.401       .  A
C2449     Br2456   1.914       .  S
C2450      C2451   1.402       .  A
C2450      H2455   1.085       .  S
C2451      C2452   1.408       .  A
C2452     Br2453   1.915       .  S
C2457      C2458   1.397       .  A
C2457      C2462   1.401       .  A
C2457      H2464   1.085       .  S
C2458      C2459   1.411       .  A
C2459      C2460   1.412       .  A
C2459     Br2466   1.918       .  S
C2460      C2461   1.412       .  A
C2460      H2465   1.083       .  S
C2461      C2462   1.429       .  A
C2462     Br2463   1.926       .  S
C2467      C2468   1.406       .  A
C2467      C2472   1.407       .  A
C2467      H2474   1.084       .  S
C2468      C2469   1.421       .  A
C2469      C2470   1.419       .  A
C2469     Br2476   1.918       .  S
C2470      C2471   1.412       .  A
C2470      H2475   1.084       .  S
C2471      C2472   1.423       .  A
C2472     Br2473   1.923       .  S
C2477      C2478   1.401       .  A
C2477      C2482   1.387       .  A
C2477      H2484   1.084       .  S
C2478      C2479   1.410       .  A
C2479      C2480   1.385       .  A
C2479     Br2486   1.916       .  S
C2480      C2481   1.393       .  A
C2480      H2485   1.083       .  S
C2481      C2482   1.402       .  A
C2482     Br2483   1.915       .  S
C2487      C2488   1.400       .  A
C2487      C2492   1.391       .  A
C2487      H2494   1.082       .  S
C2488      C2489   1.410       .  A
C2489      C2490   1.408       .  A
C2489     Br2496   1.918       .  S
C2490      C2491   1.406       .  A
C2490      H2495   1.083       .  S
C2491      C2492   1.407       .  A
C2492     Br2493   1.915       .  S
