geometry optimzed in LAMMPS
_audit_creation_date              2020-11-30 
_audit_creation_method            'lammps2cif' 
_symmetry_space_group_name_H-M    'P1' 
_symmetry_Int_Tables_number       1 
_symmetry_cell_setting            triclinic 
loop_ 
_symmetry_equiv_pos_as_xyz 
  x,y,z 
_cell_length_a                    52.1094066 
_cell_length_b                    51.34156607309083 
_cell_length_c                    53.04220686550048 
_cell_angle_alpha                 90.05043433380366 
_cell_angle_beta                  90.0945904022414 
_cell_angle_gamma                 89.90495309700329 
loop_ 
_atom_site_label 
_atom_site_type_symbol 
_atom_site_fract_x 
_atom_site_fract_y 
_atom_site_fract_z 
_atom_site_charge 
N1          N  0.93783233  0.99496745  0.23874611    -0.36200
N2          N  0.97845913  0.95591035  0.24092547    -0.56700
N3          N  0.01610229  0.99778898  0.24080125    -0.36200
N4          N  0.97603954  0.03642053  0.24253990    -0.56700
C5          C  0.92382370  0.97336886  0.24392090     0.27400
C6          C  0.92249285  0.01593567  0.24242503     0.27400
C7          C  0.03084991  0.97650850  0.24445709     0.27400
C8          C  0.02964308  0.01849383  0.24925580     0.27400
C9          C  0.95803228  0.94045380  0.23625490     0.36000
C10         C  0.99939093  0.94238598  0.23339356     0.36000
C11         C  0.95513468  0.05130256  0.23781203     0.36000
C12         C  0.99660828  0.05252298  0.24196586     0.36000
C13         C  0.89925142  0.98076445  0.25094681    -0.21500
C14         C  0.89829196  0.00752981  0.24964041    -0.21500
C15         C  0.05388987  0.98354681  0.25555035    -0.21500
C16         C  0.05293413  0.01003125  0.25905610    -0.21500
C17         C  0.96602875  0.91686774  0.22625877    -0.22500
C18         C  0.99218586  0.91826687  0.22400756    -0.22500
C19         C  0.96254413  0.07713562  0.23502729    -0.22500
C20         C  0.98870495  0.07782873  0.23737053    -0.22500
C21         C  0.93220202  0.94720940  0.24081795    -0.17900
C22         C  0.92934630  0.04228392  0.23804883    -0.17900
C23         C  0.02233507  0.04487641  0.24639492    -0.17900
C24         C  0.02490131  0.95129133  0.23600440    -0.17900
H25         H  0.88345407  0.96822633  0.25613298     0.15100
H26         H  0.88158866  0.01934826  0.25366016     0.15100
H27         H  0.06974267  0.97088364  0.26050493     0.15100
H28         H  0.06797519  0.02172998  0.26739548     0.15100
H29         H  0.95416837  0.90065751  0.22040309     0.13300
H30         H  0.00431891  0.90318790  0.21621606     0.13300
H31         H  0.95055552  0.09409061  0.23228328     0.13300
H32         H  0.00042461  0.09514715  0.23606030     0.13300
H33         H  0.95586115  0.99537029  0.23046557     0.26600
H34         H  0.99953275  0.99831703  0.22986706     0.26600
Zr35       Zr  0.26724973  0.27138983  0.22478943     2.17500
O36         O  0.31313592  0.27707756  0.23222449    -0.50900
O37         O  0.25554247  0.30683543  0.25307014    -0.74100
O38         O  0.28518913  0.30662214  0.19998534    -0.80900
O39         O  0.26799706  0.21520107  0.27218752    -0.82600
O40         O  0.26335361  0.30964124  0.16296297    -0.78200
O41         O  0.28816282  0.25290058  0.26158031    -0.89900
O42         O  0.21211845  0.30836603  0.25644870    -0.75800
O43         O  0.23052442  0.29092484  0.20582831    -0.85300
O44         O  0.23151517  0.25569530  0.24807970    -0.85000
O45         O  0.26816507  0.25698698  0.18157830    -0.71800
O46         O  0.26844374  0.22484777  0.22110828    -0.83900
Zr47       Zr  0.19573130  0.21402315  0.18167868     2.26400
Zr48       Zr  0.23036246  0.27601150  0.16295976     2.06300
Zr49       Zr  0.23192225  0.20934369  0.24370080     2.10000
Zr50       Zr  0.19479898  0.27476428  0.22884759     1.78800
O51         O  0.25209558  0.16806164  0.25466222    -0.92700
O52         O  0.17476327  0.31433045  0.21280673    -0.40500
O53         O  0.19468217  0.22823112  0.22477200    -0.77200
O54         O  0.19361482  0.26064740  0.18567119    -0.95900
O55         O  0.23169823  0.22962038  0.15883091    -0.89200
O56         O  0.23213493  0.19441918  0.20097595    -0.92000
C57         C  0.23473971  0.31629789  0.26223510     1.01800
C58         C  0.28561781  0.23237253  0.27518220     1.14700
C59         C  0.28105955  0.31689460  0.17829772     1.05500
O60         O  0.20793840  0.31710248  0.15641841    -0.94200
O61         O  0.19769418  0.26733659  0.13065731    -0.89900
O62         O  0.17805453  0.22978521  0.14248111    -0.83000
C63         C  0.18124263  0.24894067  0.12740667     1.12100
O64         O  0.31418751  0.21088986  0.18659943    -0.96100
Zr65       Zr  0.26813852  0.21032255  0.17836035     1.88900
O66         O  0.20720232  0.18011253  0.15141608    -0.72800
O67         O  0.24997198  0.27630317  0.12129126    -0.52000
O68         O  0.29184413  0.21869588  0.13967428    -0.96700
O69         O  0.28417569  0.16786419  0.19189013    -0.53900
O70         O  0.25065848  0.17967691  0.14808171    -0.73300
C71         C  0.22822347  0.17178101  0.14166988     0.99100
O72         O  0.14965066  0.20615685  0.17897447    -0.62100
O73         O  0.21186785  0.21539635  0.28472301    -0.56900
O74         O  0.17695562  0.17940419  0.20637651    -0.93600
O75         O  0.19888005  0.17559263  0.24335416    -0.92000
O76         O  0.17500695  0.26823302  0.26996788    -0.92400
O77         O  0.14831088  0.27025671  0.22722850    -0.91200
C78         C  0.18095664  0.16888481  0.22797707     1.17900
H79         H  0.23286845  0.26047373  0.26563750     0.33800
H80         H  0.17804446  0.26717988  0.17804687     0.44700
H81         H  0.23113824  0.17563522  0.20017562     0.38200
H82         H  0.28341953  0.26328359  0.17327706     0.34700
H83         H  0.16479741  0.32127190  0.22721141     0.26500
H84         H  0.24585552  0.29370098  0.11431119     0.32400
H85         H  0.27901398  0.22632658  0.12803619     0.38300
H86         H  0.18891342  0.27095815  0.28243036     0.32800
H87         H  0.19319943  0.21468838  0.28131528     0.31700
H88         H  0.24367321  0.16266231  0.27053211     0.33300
H89         H  0.27178157  0.15490021  0.18537648     0.32300
H90         H  0.14542177  0.25202623  0.22182934     0.36300
H91         H  0.14172735  0.22363464  0.17750927     0.29000
H92         H  0.31547344  0.29563152  0.23678933     0.33300
H93         H  0.32170112  0.19765325  0.17518832     0.36100
H94         H  0.21565425  0.19914577  0.29405149     0.28700
H95         H  0.14671037  0.19774917  0.16241073     0.41600
H96         H  0.20878480  0.32011383  0.13800184     0.31700
H97         H  0.18908141  0.32679319  0.21074214     0.39300
H98         H  0.28164592  0.16769531  0.21038018     0.31100
H99         H  0.26869974  0.27675092  0.12442599     0.31200
H100        H  0.32137827  0.27508882  0.21552404     0.31500
Zr101      Zr  0.72138974  0.29489435  0.21682238     2.17500
O102        O  0.71763711  0.34102451  0.22730613    -0.50900
O103        O  0.69048190  0.28097328  0.24810838    -0.74100
O104        O  0.68229400  0.31381519  0.20041358    -0.80900
O105        O  0.78277436  0.28975779  0.25598917    -0.82600
O106        O  0.67246317  0.29559640  0.16247441    -0.78200
O107        O  0.74558831  0.31273926  0.25212504    -0.89900
O108        O  0.68686320  0.23697469  0.24538760    -0.75800
O109        O  0.69889653  0.25963598  0.19773334    -0.85300
O110        O  0.73964386  0.25635923  0.23408217    -0.85000
O111        O  0.72750535  0.29975157  0.17216407    -0.71800
O112        O  0.76585870  0.29665466  0.20595493    -0.83900
Zr113      Zr  0.76936135  0.22642142  0.15853563     2.26400
Zr114      Zr  0.70588504  0.26332451  0.15327592     2.06300
Zr115      Zr  0.78390443  0.25736826  0.22237595     2.10000
Zr116      Zr  0.71765503  0.22120127  0.21440968     1.78800
O117        O  0.82670418  0.27576644  0.22690791    -0.92700
O118        O  0.67714302  0.20201375  0.20093912    -0.40500
O119        O  0.76216604  0.22151219  0.20301531    -0.77200
O120        O  0.72457622  0.22393297  0.16972442    -0.95900
O121        O  0.75031889  0.26488098  0.14176290    -0.89200
O122        O  0.79136404  0.26173807  0.17802876    -0.92000
C123        C  0.68042294  0.25921977  0.25455352     1.01800
C124        C  0.76719397  0.30783132  0.26288091     1.14700
C125        C  0.66824248  0.31162098  0.18070126     1.05500
O126        O  0.66502402  0.24081314  0.14880357    -0.94200
O127        O  0.70782630  0.23286149  0.11784724    -0.89900
O128        O  0.74569420  0.21128315  0.12169233    -0.83000
C129        C  0.72424228  0.21573740  0.11052947     1.12100
O130        O  0.76625632  0.34694538  0.16695435    -0.96100
Zr131      Zr  0.77209281  0.30014906  0.16149540     1.88900
O132        O  0.80162335  0.24160226  0.12836683    -0.72800
O133        O  0.70016021  0.28940424  0.11533693    -0.52000
O134        O  0.76146781  0.32157247  0.12186692    -0.96700
O135        O  0.81210801  0.32019951  0.17530396    -0.53900
O136        O  0.80184642  0.28582164  0.12958541    -0.73300
C137        C  0.80967250  0.26396467  0.12088044     0.99100
O138        O  0.78027336  0.18213266  0.14546502    -0.62100
O139        O  0.78632570  0.23224804  0.26124308    -0.56900
O140        O  0.80244665  0.20125911  0.17997344    -0.93600
O141        O  0.81565647  0.22364258  0.21467643    -0.92000
O142        O  0.73056991  0.19772952  0.25229645    -0.92400
O143        O  0.71997637  0.17393877  0.21116545    -0.91200
C144        C  0.81721429  0.20457109  0.19913133     1.17900
H145        H  0.73777521  0.25602034  0.25223292     0.33800
H146        H  0.71672605  0.20882894  0.16201434     0.44700
H147        H  0.80956265  0.26114720  0.17463367     0.38200
H148        H  0.71993952  0.31591115  0.16644601     0.34700
H149        H  0.67114916  0.19188267  0.21567058     0.26500
H150        H  0.68240909  0.28565173  0.10974339     0.32400
H151        H  0.74305892  0.32607938  0.12331567     0.38300
H152        H  0.73382773  0.21129411  0.26516670     0.32800
H153        H  0.78452852  0.21387794  0.25583176     0.31700
H154        H  0.83262747  0.26989818  0.24371959     0.33300
H155        H  0.82585798  0.30865212  0.16889075     0.32300
H156        H  0.73509984  0.17059001  0.20035464     0.36300
H157        H  0.76388422  0.17242914  0.14457802     0.29000
H158        H  0.70115198  0.34283053  0.23641241     0.33300
H159        H  0.77997055  0.35519314  0.15683984     0.36100
H160        H  0.80442105  0.23377399  0.26675522     0.28700
H161        H  0.78627035  0.18350889  0.12780523     0.41600
H162        H  0.65687864  0.24883356  0.13381416     0.31700
H163        H  0.66505670  0.21687448  0.19989091     0.39300
H164        H  0.81244470  0.31766476  0.19380256     0.31100
H165        H  0.69950995  0.30765857  0.12132535     0.31200
H166        H  0.71498763  0.35011779  0.21104950     0.31500
Zr167      Zr  0.70939297  0.69836173  0.20353614     2.17500
O168        O  0.70963302  0.65112702  0.19887879    -0.50900
O169        O  0.67531712  0.70174582  0.23436138    -0.74100
O170        O  0.72650278  0.67957937  0.24203301    -0.80900
O171        O  0.66953461  0.70422914  0.14359890    -0.82600
O172        O  0.76047539  0.70391330  0.25523190    -0.78200
O173        O  0.67510398  0.67948428  0.17879223    -0.89900
O174        O  0.67033988  0.74473347  0.24324880    -0.75800
O175        O  0.72091862  0.73393534  0.22982585    -0.85300
O176        O  0.68525092  0.73456102  0.18858338    -0.85000
O177        O  0.75502146  0.70270521  0.19922940    -0.71800
O178        O  0.72199044  0.70411938  0.16047593    -0.83900
Zr179      Zr  0.75492954  0.78215862  0.16746533     2.26400
Zr180      Zr  0.76622219  0.73941489  0.22499659     2.06300
Zr181      Zr  0.69838399  0.74122380  0.14590646     2.10000
Zr182      Zr  0.69688890  0.76997706  0.21483697     1.78800
O183        O  0.70255263  0.72364390  0.10345558    -0.92700
O184        O  0.70516210  0.78917035  0.25604621    -0.40500
O185        O  0.70941409  0.77749521  0.17204182    -0.77200
O186        O  0.74219576  0.77655542  0.21059971    -0.95900
O187        O  0.77920181  0.74601365  0.18227303    -0.89200
O188        O  0.74353143  0.74655176  0.14105235    -0.92000
C189        C  0.66519457  0.72056393  0.24674328     1.01800
C190        C  0.66425368  0.68460858  0.15760871     1.14700
C191        C  0.74467306  0.68480862  0.25758910     1.05500
O192        O  0.76877803  0.75509101  0.26823996    -0.94200
O193        O  0.79508090  0.77690994  0.22820328    -0.89900
O194        O  0.78917844  0.80063137  0.19250166    -0.83000
C195        C  0.80009924  0.79640918  0.21381781     1.12100
O196        O  0.77173965  0.66297647  0.15500600    -0.96100
Zr197      Zr  0.76734734  0.71026189  0.15634953     1.88900
O198        O  0.78998037  0.77823880  0.13734986    -0.72800
O199        O  0.80834400  0.71883739  0.22600924    -0.52000
O200        O  0.80982394  0.69741618  0.17112501    -0.96700
O201        O  0.76242071  0.69224653  0.11404603    -0.53900
O202        O  0.79627911  0.73507977  0.13004811    -0.73300
C203        C  0.80137266  0.75920390  0.12629798     0.99100
O204        O  0.75300219  0.82972663  0.16989499    -0.62100
O205        O  0.65538718  0.75840373  0.13851777    -0.56900
O206        O  0.73564706  0.80306208  0.13121343    -0.93600
O207        O  0.70043854  0.77994254  0.11935820    -0.92000
O208        O  0.65306144  0.78098611  0.20280990    -0.92400
O209        O  0.68855387  0.81664900  0.21598403    -0.91200
C210        C  0.71577634  0.79941267  0.11735469     1.17900
H211        H  0.66701340  0.73125636  0.18961477     0.33800
H212        H  0.74675426  0.79179371  0.22028816     0.44700
H213        H  0.74749048  0.75010049  0.12360762     0.38200
H214        H  0.76352382  0.68720040  0.20530713     0.34700
H215        H  0.68794850  0.79296047  0.26303906     0.26500
H216        H  0.81940477  0.73029575  0.21568834     0.32400
H217        H  0.82113240  0.69892812  0.15622214     0.38300
H218        H  0.65445771  0.78748098  0.18529370     0.32800
H219        H  0.65035656  0.75143845  0.12181570     0.31700
H220        H  0.68703911  0.72982441  0.09445686     0.33300
H221        H  0.76032338  0.70753807  0.10287106     0.32300
H222        H  0.70277855  0.82442821  0.20621830     0.36300
H223        H  0.73487153  0.83440572  0.16653673     0.29000
H224        H  0.70394583  0.64411088  0.21532158     0.33300
H225        H  0.78702670  0.65951256  0.14444430     0.36100
H226        H  0.64419897  0.74916569  0.15062905     0.28700
H227        H  0.75521926  0.83411551  0.18794459     0.41600
H228        H  0.76147640  0.77289457  0.26767117     0.31700
H229        H  0.71163979  0.77451653  0.26639220     0.39300
H230        H  0.74530989  0.68388585  0.11410500     0.31100
H231        H  0.81445962  0.72147326  0.24350573     0.31200
H232        H  0.72800415  0.64635549  0.19766023     0.31500
Zr233      Zr  0.26299930  0.71587220  0.21514399     2.17500
O234        O  0.26356237  0.66863216  0.22005895    -0.50900
O235        O  0.29902916  0.72366384  0.24312348    -0.74100
O236        O  0.29742708  0.69619073  0.19151047    -0.80900
O237        O  0.20825090  0.71994315  0.26260466    -0.82600
O238        O  0.30601313  0.72017665  0.15655176    -0.78200
O239        O  0.24459869  0.69741928  0.25323582    -0.89900
O240        O  0.30090650  0.76716762  0.25075489    -0.75800
O241        O  0.28589302  0.75246545  0.19928707    -0.85300
O242        O  0.24892617  0.75218900  0.23921007    -0.85000
O243        O  0.25205942  0.71810109  0.17110778    -0.71800
O244        O  0.21753631  0.71748279  0.20834676    -0.83900
Zr245      Zr  0.21426252  0.79442665  0.17285259     2.26400
Zr246      Zr  0.27444566  0.75565962  0.15566771     2.06300
Zr247      Zr  0.20379953  0.75460758  0.23203594     2.10000
Zr248      Zr  0.27097098  0.78885572  0.22282813     1.78800
O249        O  0.16205384  0.73389889  0.23646779    -0.92700
O250        O  0.31275034  0.80595605  0.21069254    -0.40500
O251        O  0.22557801  0.79227511  0.21654162    -0.77200
O252        O  0.25992499  0.79285923  0.17916054    -0.95900
O253        O  0.22915431  0.75832756  0.14872026    -0.89200
O254        O  0.19188157  0.75759860  0.18863320    -0.92000
C255        C  0.30851214  0.74366585  0.25416929     1.01800
C256        C  0.22469351  0.70190435  0.26686170     1.14700
C257        C  0.31009231  0.70068863  0.17128500     1.05500
O258        O  0.31584202  0.77705605  0.15096809    -0.94200
O259        O  0.26904557  0.79070093  0.12478476    -0.89900
O260        O  0.23176754  0.81182661  0.13413392    -0.83000
C261        C  0.25178658  0.80815138  0.12054960     1.12100
O262        O  0.20855926  0.67412428  0.16499476    -0.96100
Zr263      Zr  0.20674104  0.72160111  0.16448920     1.88900
O264        O  0.18070983  0.78719773  0.14205285    -0.72800
O265        O  0.27648230  0.73506587  0.11434088    -0.52000
O266        O  0.21462037  0.70161968  0.12354063    -0.96700
O267        O  0.16442932  0.70480811  0.17534537    -0.53900
O268        O  0.17889827  0.74367904  0.13437891    -0.73300
C269        C  0.17203324  0.76733779  0.13016142     0.99100
O270        O  0.21313174  0.84194680  0.17369941    -0.62100
O271        O  0.20174922  0.77456243  0.27371707    -0.56900
O272        O  0.17770535  0.81250153  0.19543938    -0.93600
O273        O  0.17351282  0.79022452  0.23226287    -0.92000
O274        O  0.26184034  0.80770009  0.26399443    -0.92400
O275        O  0.27269085  0.83626168  0.22390793    -0.91200
C276        C  0.16705161  0.80832536  0.21690527     1.17900
H277        H  0.25263780  0.74995237  0.25691512     0.33800
H278        H  0.26770565  0.80850514  0.17260031     0.44700
H279        H  0.17355813  0.75981874  0.18690781     0.38200
H280        H  0.25785607  0.70264742  0.16241866     0.34700
H281        H  0.32084662  0.81142114  0.22674793     0.26500
H282        H  0.26218865  0.74291229  0.10463878     0.32400
H283        H  0.22552359  0.71424907  0.11445309     0.38300
H284        H  0.24290559  0.80915208  0.26458921     0.32800
H285        H  0.18731285  0.76573327  0.28228046     0.31700
H286        H  0.15741502  0.73647585  0.25439538     0.33300
H287        H  0.15290144  0.72014289  0.17561493     0.32300
H288        H  0.26671070  0.84187637  0.20704154     0.36300
H289        H  0.21358241  0.84659670  0.19182179     0.29000
H290        H  0.28095091  0.66431090  0.22637737     0.33300
H291        H  0.19349943  0.66817094  0.15515644     0.36100
H292        H  0.21725120  0.76834537  0.28270715     0.28700
H293        H  0.23009638  0.84759013  0.16738251     0.41600
H294        H  0.31263970  0.79546980  0.15556584     0.31700
H295        H  0.32274966  0.79049652  0.20536349     0.39300
H296        H  0.16594830  0.69949184  0.19322291     0.31100
H297        H  0.29216667  0.74229471  0.10651432     0.31200
H298        H  0.26292934  0.66146575  0.20273137     0.31500
N299        N  0.29896480  0.96223690  0.94457676    -0.36200
N300        N  0.29254412  0.00514800  0.90888802    -0.56700
N301        N  0.28056645  0.04027132  0.95064347    -0.36200
N302        N  0.28467084  0.99675243  0.98581103    -0.56700
C303        C  0.30105867  0.94875416  0.92273158     0.27400
C304        C  0.29938551  0.94487075  0.96377335     0.27400
C305        C  0.27451655  0.05516475  0.93042530     0.27400
C306        C  0.26762413  0.04999821  0.97074980     0.27400
C307        C  0.30137823  0.98660744  0.89296153     0.36000
C308        C  0.29415560  0.02812068  0.89656209     0.36000
C309        C  0.29328197  0.97623958  0.99945707     0.36000
C310        C  0.28075548  0.01651100  0.00223516     0.36000
C311        C  0.30403723  0.92248386  0.92827396    -0.21500
C312        C  0.30297103  0.92005378  0.95403067    -0.21500
C313        C  0.25764945  0.07464605  0.93770021    -0.21500
C314        C  0.25294221  0.07112385  0.96300168    -0.21500
C315        C  0.30846827  0.99787939  0.87027876    -0.22500
C316        C  0.30442230  0.02417463  0.87274677    -0.22500
C317        C  0.29478429  0.98303047  0.02471347    -0.22500
C318        C  0.28698981  0.00849301  0.02646148    -0.22500
C319        C  0.30164529  0.95952290  0.89801069    -0.17900
C320        C  0.29778515  0.95087277  0.98987441    -0.17900
C321        C  0.26984039  0.04099053  0.99601309    -0.17900
C322        C  0.28429363  0.05208533  0.90571390    -0.17900
H323        H  0.30748124  0.90661669  0.91527978     0.15100
H324        H  0.30518283  0.90199606  0.96429847     0.15100
H325        H  0.24923883  0.08958595  0.92588805     0.15100
H326        H  0.24008636  0.08287119  0.97427740     0.15100
H327        H  0.31601417  0.98834255  0.85367869     0.13300
H328        H  0.30817636  0.03855971  0.85833956     0.13300
H329        H  0.30063139  0.97088780  0.04036906     0.13300
H330        H  0.28591901  0.01971231  0.04370825     0.13300
H331        H  0.29861468  0.98224735  0.94638103     0.26600
H332        H  0.29488557  0.02615328  0.95113648     0.26600
N333        N  0.00201773  0.26118386  0.97726834    -0.36200
N334        N  0.03913864  0.26646933  0.93679492    -0.56700
N335        N  0.99743854  0.26282295  0.90027784    -0.36200
N336        N  0.96021808  0.26119448  0.94101348    -0.56700
C337        C  0.02270673  0.26977024  0.99033934     0.27400
C338        C  0.98146868  0.26294761  0.99272546     0.27400
C339        C  0.01754423  0.26863693  0.88523874     0.27400
C340        C  0.97575940  0.26909942  0.88748903     0.27400
C341        C  0.05529041  0.26385270  0.95660823     0.36000
C342        C  0.05303789  0.26151807  0.91584949     0.36000
C343        C  0.94729974  0.25272076  0.96152525     0.36000
C344        C  0.94452032  0.25750152  0.92100109     0.36000
C345        C  0.01514873  0.27691217  0.01446224    -0.21500
C346        C  0.98916977  0.27245013  0.01600383    -0.21500
C347        C  0.00865649  0.27850551  0.86254125    -0.21500
C348        C  0.98231892  0.27919797  0.86409500    -0.21500
C349        C  0.07970034  0.25760172  0.94817193    -0.22500
C350        C  0.07815380  0.25560617  0.92239622    -0.22500
C351        C  0.92338429  0.24338949  0.95439377    -0.22500
C352        C  0.92146680  0.24685136  0.92880811    -0.22500
C353        C  0.04847655  0.26895286  0.98192269    -0.17900
C354        C  0.95617990  0.25513640  0.98669936    -0.17900
C355        C  0.95033199  0.26444297  0.89588436    -0.17900
C356        C  0.04363846  0.26403715  0.89093545    -0.17900
H357        H  0.02717321  0.28396495  0.02964984     0.15100
H358        H  0.97730672  0.27580091  0.03242461     0.15100
H359        H  0.02000830  0.28476262  0.84658842     0.15100
H360        H  0.96956848  0.28614355  0.84945525     0.15100
H361        H  0.09689300  0.25469706  0.95925684     0.13300
H362        H  0.09391250  0.25079262  0.90998231     0.13300
H363        H  0.90866774  0.23512849  0.96629502     0.13300
H364        H  0.90512374  0.24171402  0.91721568     0.13300
H365        H  0.00225449  0.25178388  0.95992402     0.26600
H366        H  0.99853483  0.25242238  0.91703671     0.26600
N367        N  0.72034762  0.00647200  0.98379549    -0.36200
N368        N  0.71808455  0.04409221  0.94256848    -0.56700
N369        N  0.72146721  0.00014519  0.90705088    -0.36200
N370        N  0.71920164  0.96308082  0.94845187    -0.56700
C371        C  0.71534526  0.02876943  0.99657139     0.27400
C372        C  0.71586806  0.98635205  0.99969630     0.27400
C373        C  0.71574114  0.02032916  0.89162059     0.27400
C374        C  0.71527239  0.97794223  0.89460837     0.27400
C375        C  0.72445243  0.06001781  0.96196835     0.36000
C376        C  0.72516123  0.05655186  0.92119284     0.36000
C377        C  0.72466652  0.94991400  0.96988369     0.36000
C378        C  0.72425561  0.94664041  0.92914216     0.36000
C379        C  0.70736483  0.02270583  0.02080602    -0.21500
C380        C  0.70771530  0.99598461  0.02278053    -0.21500
C381        C  0.70576568  0.01090796  0.86916530    -0.21500
C382        C  0.70525966  0.98419281  0.87112300    -0.21500
C383        C  0.73552990  0.08263831  0.95283840    -0.22500
C384        C  0.73599490  0.08043724  0.92705412    -0.22500
C385        C  0.73336068  0.92506114  0.96407287    -0.22500
C386        C  0.73286713  0.92292398  0.93829855    -0.22500
C387        C  0.72029386  0.05434540  0.98778966    -0.17900
C388        C  0.72076958  0.95970863  0.99458438    -0.17900
C389        C  0.71979498  0.95225453  0.90344735    -0.17900
C390        C  0.72128426  0.04681395  0.89647870    -0.17900
H391        H  0.70232773  0.03615497  0.03573064     0.15100
H392        H  0.70294176  0.98493425  0.03949390     0.15100
H393        H  0.69956405  0.02213873  0.85299829     0.15100
H394        H  0.69843820  0.97093513  0.85674434     0.15100
H395        H  0.74316051  0.09879693  0.96356974     0.13300
H396        H  0.74395100  0.09462460  0.91420167     0.13300
H397        H  0.73950826  0.90995812  0.97695100     0.13300
H398        H  0.73840496  0.90590290  0.92753770     0.13300
H399        H  0.72948494  0.00521391  0.96645677     0.26600
H400        H  0.73184352  0.00141275  0.92377429     0.26600
N401        N  0.02822930  0.76023590  0.93782017    -0.36200
N402        N  0.98513651  0.76187701  0.90284025    -0.56700
N403        N  0.94989615  0.76012796  0.94500164    -0.36200
N404        N  0.99288196  0.75610016  0.97959324    -0.56700
C405        C  0.04012826  0.75590002  0.91556281     0.27400
C406        C  0.04402029  0.75144140  0.95624006     0.27400
C407        C  0.93401391  0.75500973  0.92541897     0.27400
C408        C  0.93800999  0.75164623  0.96610756     0.27400
C409        C  0.00439081  0.76859013  0.88714392     0.36000
C410        C  0.96304975  0.76780108  0.89071205     0.36000
C411        C  0.01500786  0.75819709  0.99274239     0.36000
C412        C  0.97366675  0.75821682  0.99651445     0.36000
C413        C  0.06374119  0.74418324  0.91989091    -0.21500
C414        C  0.06626983  0.74153880  0.94557399    -0.21500
C415        C  0.91183351  0.74322031  0.93415910    -0.21500
C416        C  0.91440429  0.74098442  0.95981973    -0.21500
C417        C  0.99453031  0.77888603  0.86499764    -0.22500
C418        C  0.96831751  0.77855336  0.86732622    -0.22500
C419        C  0.00975796  0.76159588  0.01817717    -0.22500
C420        C  0.98357434  0.76185901  0.02051388    -0.22500
C421        C  0.03057451  0.76337218  0.89163199    -0.17900
C422        C  0.03962837  0.75393100  0.98239916    -0.17900
C423        C  0.94752564  0.75410666  0.99097928    -0.17900
C424        C  0.93834450  0.76201646  0.90007591    -0.17900
H425        H  0.07779046  0.73818454  0.90605046     0.15100
H426        H  0.08271485  0.73337660  0.95525116     0.15100
H427        H  0.89550253  0.73678770  0.92317267     0.15100
H428        H  0.90044567  0.73237627  0.97236786     0.15100
H429        H  0.00511196  0.78576743  0.84877977     0.13300
H430        H  0.95479118  0.78534738  0.85329804     0.13300
H431        H  0.02320179  0.76284874  0.03367459     0.13300
H432        H  0.97308895  0.76363137  0.03802963     0.13300
H433        H  0.01163109  0.77121448  0.94035006     0.26600
H434        H  0.96651854  0.77130736  0.94431842     0.26600
Zr435      Zr  0.22590202  0.80012150  0.71924391     2.17500
O436        O  0.22782320  0.84712163  0.72610452    -0.50900
O437        O  0.19177264  0.79540433  0.75005701    -0.74100
O438        O  0.19332498  0.82390976  0.69660023    -0.80900
O439        O  0.28047766  0.78891278  0.76586913    -0.82600
O440        O  0.18297244  0.80301475  0.66016914    -0.78200
O441        O  0.25018569  0.81831958  0.75384821    -0.89900
O442        O  0.18051757  0.75271450  0.75097370    -0.75800
O443        O  0.19915753  0.76769320  0.70081946    -0.85300
O444        O  0.23454520  0.76119111  0.74206345    -0.85000
O445        O  0.23761297  0.79892308  0.67544774    -0.71800
O446        O  0.27089864  0.79257794  0.71376190    -0.83900
Zr447      Zr  0.26564982  0.71809035  0.67409036     2.26400
Zr448      Zr  0.21149125  0.76518794  0.65737403     2.06300
Zr449      Zr  0.27913905  0.75286514  0.73597845     2.10000
Zr450      Zr  0.20859480  0.72858765  0.72289159     1.78800
O451        O  0.32219320  0.76400104  0.75018869    -0.92700
O452        O  0.16616711  0.71668814  0.70734667    -0.40500
O453        O  0.25342993  0.71916147  0.71770267    -0.77200
O454        O  0.22044384  0.72544526  0.67945745    -0.95900
O455        O  0.25630734  0.75703618  0.65158850    -0.89200
O456        O  0.29166245  0.75092282  0.69264988    -0.92000
C457        C  0.17816886  0.77645295  0.75827252     1.01800
C458        C  0.26858670  0.81071563  0.76814588     1.14700
C459        C  0.18047033  0.82169971  0.67616568     1.05500
O460        O  0.16773945  0.75109352  0.64882134    -0.94200
O461        O  0.21218933  0.73052450  0.62550101    -0.89900
O462        O  0.24618576  0.70435289  0.63475794    -0.83000
C463        C  0.22692611  0.71089974  0.62099659     1.12100
O464        O  0.28652647  0.83700018  0.67248127    -0.96100
Zr465      Zr  0.28240335  0.78976467  0.67018917     1.88900
O466        O  0.30120057  0.72310817  0.64486368    -0.72800
O467        O  0.21663777  0.78788963  0.61740221    -0.52000
O468        O  0.27941905  0.81058518  0.62903926    -0.96700
O469        O  0.32516855  0.80103723  0.68540943    -0.53900
O470        O  0.31039045  0.76621927  0.64160742    -0.73300
C471        C  0.31397048  0.74223495  0.63570878     0.99100
O472        O  0.26082155  0.67088077  0.67064296    -0.62100
O473        O  0.27053269  0.72834216  0.77434704    -0.56900
O474        O  0.29956357  0.69481846  0.69616227    -0.93600
O475        O  0.30908231  0.71678788  0.73224713    -0.92000
O476        O  0.21215517  0.70560901  0.76290826    -0.92400
O477        O  0.20179538  0.68177063  0.72017275    -0.91200
C478        C  0.31263291  0.69818229  0.71647135     1.17900
H479        H  0.23082118  0.76317365  0.75979111     0.33800
H480        H  0.21087198  0.71128605  0.67203482     0.44700
H481        H  0.30965390  0.74664756  0.69118438     0.38200
H482        H  0.23388827  0.81546566  0.66753683     0.34700
H483        H  0.15578828  0.71378635  0.72270663     0.26500
H484        H  0.20006775  0.78544137  0.60856310     0.32400
H485        H  0.27073577  0.79763197  0.61815261     0.38300
H486        H  0.21311303  0.71944619  0.77588096     0.32800
H487        H  0.28763101  0.72248701  0.78023717     0.31700
H488        H  0.33201808  0.76695906  0.73449462     0.33300
H489        H  0.33518055  0.78464606  0.68491305     0.32300
H490        H  0.21630155  0.67530207  0.70987658     0.36300
H491        H  0.26242959  0.66418410  0.68807212     0.29000
H492        H  0.21073047  0.85224455  0.73259840     0.33300
H493        H  0.30258909  0.84119485  0.66340749     0.36100
H494        H  0.26519375  0.74157285  0.78688219     0.28700
H495        H  0.24252357  0.66796895  0.66645393     0.41600
H496        H  0.16305843  0.75979621  0.63280408     0.31700
H497        H  0.15911110  0.73287591  0.69993354     0.39300
H498        H  0.32283035  0.80470308  0.70359098     0.31100
H499        H  0.21698138  0.80662304  0.62183387     0.31200
H500        H  0.22902121  0.85510646  0.70915793     0.31500
N501        N  0.98600357  0.96154114  0.65351024    -0.36200
N502        N  0.95000629  0.00285848  0.66692993    -0.56700
N503        N  0.99096451  0.04023165  0.66838250    -0.36200
N504        N  0.02731099  0.99884679  0.65674175    -0.56700
C505        C  0.96579666  0.94766961  0.66218440     0.27400
C506        C  0.00682989  0.94584079  0.65480299     0.27400
C507        C  0.97156269  0.05413968  0.67872853     0.27400
C508        C  0.01321315  0.05086036  0.67655725     0.27400
C509        C  0.93364241  0.98322144  0.66157431     0.36000
C510        C  0.93589628  0.02500492  0.66676483     0.36000
C511        C  0.04026445  0.97872735  0.64633842     0.36000
C512        C  0.04318114  0.01959499  0.65616156     0.36000
C513        C  0.97400286  0.92299173  0.66925147    -0.21500
C514        C  0.99985121  0.92174491  0.66428899    -0.21500
C515        C  0.98153948  0.07391999  0.69356700    -0.21500
C516        C  0.00783882  0.07188287  0.69218167    -0.21500
C517        C  0.90910961  0.99291535  0.65775310    -0.22500
C518        C  0.91055887  0.01941521  0.66088875    -0.22500
C519        C  0.06425408  0.98689097  0.63840539    -0.22500
C520        C  0.06633319  0.01261470  0.64512143    -0.22500
C521        C  0.94006669  0.95654241  0.66278367    -0.17900
C522        C  0.03189171  0.95258500  0.64730478    -0.17900
C523        C  0.03805793  0.04339567  0.66859483    -0.17900
C524        C  0.94514489  0.04964990  0.67441531    -0.17900
H525        H  0.96268773  0.90746272  0.67732518     0.15100
H526        H  0.01221322  0.90516490  0.66778274     0.15100
H527        H  0.97101614  0.08826885  0.70437286     0.15100
H528        H  0.02140848  0.08470136  0.70138222     0.15100
H529        H  0.89188608  0.98198408  0.65352598     0.13300
H530        H  0.89462447  0.03288936  0.65958564     0.13300
H531        H  0.07922637  0.97529764  0.62979880     0.13300
H532        H  0.08335565  0.02434018  0.64275250     0.13300
H533        H  0.98522038  0.97978753  0.64495734     0.26600
H534        H  0.98905119  0.02609552  0.65442655     0.26600
Zr535      Zr  0.27786951  0.27295204  0.66034788     2.17500
O536        O  0.32225484  0.28550971  0.65221107    -0.50900
O537        O  0.26156907  0.30429998  0.62971334    -0.74100
O538        O  0.29613301  0.25199703  0.62331550    -0.80900
O539        O  0.27633204  0.31671642  0.71824248    -0.82600
O540        O  0.27709351  0.21270570  0.61727653    -0.78200
O541        O  0.29760932  0.30976642  0.68144899    -0.89900
O542        O  0.21799604  0.30312183  0.63018089    -0.75800
O543        O  0.24184289  0.25240607  0.64129317    -0.85300
O544        O  0.24110438  0.29226867  0.67945141    -0.85000
O545        O  0.28291041  0.22739583  0.66973924    -0.71800
O546        O  0.28181979  0.26396533  0.70459759    -0.83900
Zr547      Zr  0.21219954  0.21745525  0.71424244     2.26400
Zr548      Zr  0.24599694  0.20706352  0.65123689     2.06300
Zr549      Zr  0.24456719  0.28283659  0.72347526     2.10000
Zr550      Zr  0.20512855  0.27119031  0.66081844     1.78800
O551        O  0.26787527  0.28478323  0.76325947    -0.92700
O552        O  0.18540527  0.25513231  0.62214899    -0.40500
O553        O  0.20778581  0.26283374  0.70497804    -0.77200
O554        O  0.20814575  0.22577934  0.66981497    -0.95900
O555        O  0.24880161  0.19763789  0.69543482    -0.89200
O556        O  0.24832430  0.23768088  0.73347464    -0.92000
C557        C  0.23938144  0.31178332  0.62194206     1.01800
C558        C  0.29373068  0.32224665  0.70208174     1.14700
C559        C  0.29332814  0.23046746  0.61129127     1.05500
O560        O  0.22426479  0.19959315  0.61119339    -0.94200
O561        O  0.21431464  0.17264241  0.65601453    -0.89900
O562        O  0.19492245  0.17908342  0.69385891    -0.83000
C563        C  0.19786046  0.16671793  0.67305359     1.12100
O564        O  0.33113699  0.22293058  0.70846873    -0.96100
Zr565      Zr  0.28491537  0.21839918  0.71404631     1.88900
O566        O  0.22802652  0.18787992  0.74649073    -0.72800
O567        O  0.27096388  0.16697293  0.64898224    -0.52000
O568        O  0.30334527  0.17719810  0.70005413    -0.96700
O569        O  0.30805918  0.23141288  0.75200035    -0.53900
O570        O  0.27160999  0.18807385  0.74660387    -0.73300
C571        C  0.24984884  0.18032072  0.75500964     0.99100
O572        O  0.16824725  0.20722351  0.72663092    -0.62100
O573        O  0.22330694  0.32437617  0.73139378    -0.56900
O574        O  0.18951380  0.24095889  0.74710057    -0.93600
O575        O  0.21016588  0.27925729  0.75404608    -0.92000
O576        O  0.18183359  0.31084316  0.67143752    -0.92400
O577        O  0.15903829  0.26635183  0.66661804    -0.91200
C578        C  0.19238008  0.26272293  0.75870865     1.17900
H579        H  0.24059470  0.31087608  0.67666664     0.33800
H580        H  0.19284922  0.21778942  0.66310249     0.44700
H581        H  0.24838571  0.23531515  0.75154933     0.38200
H582        H  0.29841923  0.22072539  0.66221927     0.34700
H583        H  0.17664666  0.27049463  0.61482130     0.26500
H584        H  0.26321750  0.15532243  0.66172890     0.32400
H585        H  0.29009774  0.16395721  0.70378739     0.38300
H586        H  0.18334024  0.31225975  0.68999942     0.32800
H587        H  0.23506309  0.33404606  0.74269827     0.31700
H588        H  0.25696779  0.29558809  0.77441019     0.33300
H589        H  0.29581630  0.22884026  0.76602544     0.32300
H590        H  0.15733134  0.25260501  0.67958781     0.36300
H591        H  0.15815856  0.20641899  0.71080664     0.29000
H592        H  0.32244205  0.29272887  0.63490189     0.33300
H593        H  0.33897253  0.20886791  0.71868989     0.36100
H594        H  0.22404312  0.33385992  0.71517390     0.28700
H595        H  0.16862360  0.18915144  0.73313538     0.41600
H596        H  0.23354417  0.18477012  0.60344654     0.31700
H597        H  0.19994348  0.25171116  0.61061107     0.39300
H598        H  0.30976033  0.25055727  0.75057646     0.31100
H599        H  0.26618900  0.15909959  0.63259052     0.31200
H600        H  0.33214831  0.26905456  0.65121359     0.31500
Zr601      Zr  0.71501889  0.29407940  0.67026552     2.17500
O602        O  0.71206506  0.34149127  0.66910980    -0.50900
O603        O  0.68263660  0.28409663  0.63857338    -0.74100
O604        O  0.73264403  0.31063559  0.63128074    -0.80900
O605        O  0.67071659  0.28981137  0.72759807    -0.82600
O606        O  0.77201202  0.29248094  0.62502870    -0.78200
O607        O  0.67701584  0.31119296  0.69049538    -0.89900
O608        O  0.68086697  0.24004189  0.63535502    -0.75800
O609        O  0.73340030  0.25857737  0.64790573    -0.85300
O610        O  0.69379748  0.25638921  0.68566039    -0.85000
O611        O  0.76013287  0.29565118  0.67964853    -0.71800
O612        O  0.72369094  0.29316644  0.71474715    -0.83900
Zr613      Zr  0.76573533  0.21880637  0.71661051     2.26400
Zr614      Zr  0.77823876  0.25921030  0.65752584     2.06300
Zr615      Zr  0.70282895  0.25470432  0.72983245     2.10000
Zr616      Zr  0.71235452  0.22091938  0.66337014     1.78800
O617        O  0.69960502  0.27196133  0.77249902    -0.92700
O618        O  0.72248565  0.20468250  0.62133691    -0.40500
O619        O  0.72067174  0.21827255  0.70763449    -0.77200
O620        O  0.75744249  0.22034190  0.67210560    -0.95900
O621        O  0.78701911  0.25673123  0.70168743    -0.89200
O622        O  0.74771740  0.25445224  0.73931306    -0.92000
C623        C  0.67358516  0.26301387  0.62908264     1.01800
C624        C  0.66482414  0.30730400  0.71113414     1.14700
C625        C  0.75360856  0.30801809  0.61894481     1.05500
O626        O  0.78544466  0.23931582  0.61645146    -0.94200
O627        O  0.81218426  0.22631773  0.66098976    -0.89900
O628        O  0.80499164  0.20337937  0.69697703    -0.83000
C629        C  0.81797004  0.20837352  0.67697888     1.12100
O630        O  0.76587288  0.33960217  0.72664376    -0.96100
Zr631      Zr  0.76877041  0.29226918  0.72402586     1.88900
O632        O  0.79797960  0.22864779  0.74822302    -0.72800
O633        O  0.81793903  0.28418577  0.65651357    -0.52000
O634        O  0.80886561  0.31314040  0.71195617    -0.96700
O635        O  0.75758845  0.30798933  0.76601483    -0.53900
O636        O  0.80092147  0.27270542  0.75134477    -0.73300
C637        C  0.80789164  0.24950654  0.75729900     0.99100
O638        O  0.76840726  0.17127281  0.71622112    -0.62100
O639        O  0.66159148  0.23251765  0.73214645    -0.56900
O640        O  0.74545302  0.19805512  0.75268389    -0.93600
O641        O  0.70687530  0.21797715  0.75881762    -0.92000
O642        O  0.67339255  0.19832583  0.67605482    -0.92400
O643        O  0.71684563  0.17380350  0.66078309    -0.91200
C644        C  0.72381974  0.20054457  0.76408399     1.17900
H645        H  0.67552648  0.25742282  0.68279270     0.33800
H646        H  0.76483545  0.20525990  0.66398756     0.44700
H647        H  0.75043222  0.25242512  0.75721652     0.38200
H648        H  0.76728309  0.31171637  0.67340943     0.34700
H649        H  0.71787239  0.21898411  0.60966216     0.26500
H650        H  0.82395705  0.28273860  0.63887003     0.32400
H651        H  0.82099405  0.29858895  0.70902227     0.38300
H652        H  0.65953319  0.21143746  0.67449724     0.32800
H653        H  0.65334187  0.23962213  0.74748846     0.31700
H654        H  0.68097047  0.27254103  0.77606667     0.33300
H655        H  0.76297709  0.29404989  0.77777830     0.32300
H656        H  0.72051575  0.16826156  0.67829357     0.36300
H657        H  0.75039094  0.16522110  0.71698232     0.29000
H658        H  0.70327978  0.34566394  0.65303909     0.33300
H659        H  0.77938957  0.34493046  0.73873883     0.36100
H660        H  0.65130377  0.23963571  0.71803839     0.28700
H661        H  0.77388876  0.16646504  0.69896728     0.41600
H662        H  0.76963814  0.24307189  0.60671450     0.31700
H663        H  0.74146330  0.20405808  0.62081971     0.39300
H664        H  0.73860480  0.30756775  0.76643401     0.31100
H665        H  0.81253434  0.30259198  0.65827160     0.31200
H666        H  0.72991248  0.34763190  0.66679906     0.31500
Zr667      Zr  0.71237799  0.70925947  0.67383685     2.17500
O668        O  0.70957199  0.66182848  0.67371219    -0.50900
O669        O  0.68042453  0.71474464  0.64083233    -0.74100
O670        O  0.67496244  0.69381292  0.69658254    -0.80900
O671        O  0.77342575  0.70478504  0.63442037    -0.82600
O672        O  0.66433848  0.72296243  0.72721197    -0.78200
O673        O  0.73513873  0.68475181  0.64132346    -0.89900
O674        O  0.67704057  0.75804375  0.63288709    -0.75800
O675        O  0.68976140  0.74810894  0.68466146    -0.85300
O676        O  0.73005201  0.74259730  0.64800918    -0.85000
O677        O  0.71956841  0.71583493  0.71823525    -0.71800
O678        O  0.75713069  0.71075662  0.68436340    -0.83900
Zr679      Zr  0.75993102  0.79071323  0.71308928     2.26400
Zr680      Zr  0.69787379  0.75579516  0.72861531     2.06300
Zr681      Zr  0.77456519  0.74480798  0.65884463     2.10000
Zr682      Zr  0.70762748  0.78128817  0.65900270     1.78800
O683        O  0.81739389  0.72599236  0.66162286    -0.92700
O684        O  0.66723099  0.80339665  0.66790120    -0.40500
O685        O  0.75238416  0.78423751  0.66892571    -0.77200
O686        O  0.71504671  0.78990045  0.70291001    -0.95900
O687        O  0.74232158  0.75769501  0.73906240    -0.89200
O688        O  0.78237027  0.75178093  0.70264654    -0.92000
C689        C  0.67066735  0.73422747  0.62910915     1.01800
C690        C  0.75715939  0.68647288  0.63049550     1.14700
C691        C  0.66066966  0.70188473  0.71469618     1.05500
O692        O  0.65790618  0.78043151  0.72936447    -0.94200
O693        O  0.70304030  0.79170578  0.75870944    -0.89900
O694        O  0.74058799  0.81184663  0.74914401    -0.83000
C695        C  0.72020800  0.80930071  0.76246098     1.12100
O696        O  0.76214646  0.67142844  0.73209529    -0.96100
Zr697      Zr  0.76415692  0.71871219  0.72836388     1.88900
O698        O  0.79265795  0.78499762  0.74535878    -0.72800
O699        O  0.69247675  0.73860027  0.77108730    -0.52000
O700        O  0.74877325  0.70662602  0.77012334    -0.96700
O701        O  0.80588564  0.69776148  0.72354222    -0.53900
O702        O  0.79204814  0.74235945  0.75695495    -0.73300
C703        C  0.80020428  0.76584036  0.75902945     0.99100
O704        O  0.76083206  0.83817803  0.70976508    -0.62100
O705        O  0.77973375  0.75626977  0.61457814    -0.56900
O706        O  0.79701684  0.80700142  0.69095813    -0.93600
O707        O  0.80440919  0.78129446  0.65681699    -0.92000
O708        O  0.71770860  0.79191725  0.61538010    -0.92400
O709        O  0.71197119  0.82771502  0.65061479    -0.91200
C710        C  0.80919949  0.80120708  0.67071618     1.17900
H711        H  0.72794357  0.73862352  0.63032340     0.33800
H712        H  0.70728199  0.80634509  0.70735449     0.44700
H713        H  0.80055640  0.75348628  0.70571359     0.38200
H714        H  0.71246701  0.70154424  0.72777180     0.34700
H715        H  0.66204416  0.81128230  0.65164048     0.26500
H716        H  0.67418248  0.74168922  0.77515104     0.32400
H717        H  0.75131279  0.72231962  0.78069120     0.38300
H718        H  0.70110334  0.79709101  0.60775838     0.32800
H719        H  0.77545045  0.77504333  0.61369744     0.31700
H720        H  0.82543427  0.72997544  0.64517463     0.33300
H721        H  0.81867411  0.71165088  0.72659418     0.32300
H722        H  0.71352481  0.83586028  0.66746981     0.36300
H723        H  0.76290762  0.84186240  0.69155900     0.29000
H724        H  0.69195652  0.65762993  0.66798682     0.33300
H725        H  0.77123945  0.66713403  0.74796600     0.36100
H726        H  0.79846687  0.75547418  0.61154923     0.28700
H727        H  0.74309165  0.84400678  0.71337043     0.41600
H728        H  0.66211202  0.79735300  0.72146766     0.31700
H729        H  0.65471780  0.78917826  0.67059223     0.39300
H730        H  0.80722083  0.69407141  0.70526701     0.31100
H731        H  0.69396974  0.71946126  0.76931613     0.31200
H732        H  0.71011441  0.65664824  0.69168415     0.31500
N733        N  0.49070576  0.46041909  0.73910965    -0.36200
N734        N  0.52837375  0.50059261  0.74946696    -0.56700
N735        N  0.48947132  0.53981347  0.73905196    -0.36200
N736        N  0.45125091  0.49894281  0.73221288    -0.56700
C737        C  0.50947520  0.44652716  0.75047466     0.27400
C738        C  0.46927200  0.44562721  0.73947105     0.27400
C739        C  0.50851302  0.55415551  0.74938023     0.27400
C740        C  0.46728184  0.55308801  0.74244946     0.27400
C741        C  0.54392687  0.47951889  0.74786489     0.36000
C742        C  0.54347697  0.52171319  0.74620344     0.36000
C743        C  0.43953478  0.47811491  0.72173745     0.36000
C744        C  0.43834246  0.52010437  0.72404184     0.36000
C745        C  0.49964770  0.42290260  0.75869927    -0.21500
C746        C  0.47431019  0.42221215  0.75146599    -0.21500
C747        C  0.49834608  0.57670664  0.75974666    -0.21500
C748        C  0.47224359  0.57593240  0.75556317    -0.21500
C749        C  0.56901573  0.48724840  0.74372195    -0.22500
C750        C  0.56873172  0.51398188  0.74252190    -0.22500
C751        C  0.41936915  0.48613518  0.70650878    -0.22500
C752        C  0.41839628  0.51278847  0.70826248    -0.22500
C753        C  0.53573216  0.45348347  0.75084795    -0.17900
C754        C  0.44599745  0.45206758  0.72743565    -0.17900
C755        C  0.44324315  0.54568435  0.73225153    -0.17900
C756        C  0.53490359  0.54779150  0.74823987    -0.17900
H757        H  0.50985308  0.40741166  0.76826116     0.15100
H758        H  0.46118836  0.40618692  0.75442390     0.15100
H759        H  0.50864845  0.59208051  0.76936462     0.15100
H760        H  0.45859027  0.59066217  0.76133926     0.15100
H761        H  0.58574760  0.47493850  0.74157165     0.13300
H762        H  0.58529357  0.52622248  0.73934075     0.13300
H763        H  0.40656385  0.47414965  0.69541002     0.13300
H764        H  0.40469739  0.52536955  0.69889072     0.13300
H765        H  0.49324341  0.47731962  0.72858005     0.26600
H766        H  0.49197197  0.52339794  0.72775764     0.26600
N767        N  0.44045749  0.50048690  0.15257908    -0.36200
N768        N  0.48403759  0.53474135  0.14333945    -0.56700
N769        N  0.51700608  0.48934415  0.14373486    -0.36200
N770        N  0.47319085  0.45478235  0.14855464    -0.56700
C771        C  0.42821103  0.52291401  0.14658762     0.27400
C772        C  0.42276313  0.48125648  0.15229527     0.27400
C773        C  0.53341808  0.50827273  0.13662115     0.27400
C774        C  0.52748653  0.46638139  0.13667470     0.27400
C775        C  0.46582563  0.55250622  0.14896163     0.36000
C776        C  0.50681183  0.54645980  0.14762053     0.36000
C777        C  0.45215307  0.44374142  0.15889165     0.36000
C778        C  0.49262387  0.43760926  0.15178167     0.36000
C779        C  0.40241734  0.51778707  0.14234517    -0.21500
C780        C  0.39893081  0.49155164  0.14624900    -0.21500
C781        C  0.55448251  0.49738001  0.12469832    -0.21500
C782        C  0.55057240  0.47089762  0.12439894    -0.21500
C783        C  0.47699701  0.57572455  0.15648684    -0.22500
C784        C  0.50302840  0.57176917  0.15601846    -0.22500
C785        C  0.45825354  0.41943276  0.16859113    -0.22500
C786        C  0.48386703  0.41546555  0.16389597    -0.22500
C787        C  0.43923977  0.54811613  0.14719254    -0.17900
C788        C  0.42734114  0.45496476  0.15872365    -0.17900
C789        C  0.51809592  0.44158267  0.14366721    -0.17900
C790        C  0.53081241  0.53481986  0.14264637    -0.17900
H791        H  0.38748222  0.53158479  0.13751639     0.15100
H792        H  0.38087701  0.48124878  0.14486556     0.15100
H793        H  0.57105431  0.50747206  0.11728053     0.15100
H794        H  0.56367117  0.45657497  0.11672946     0.15100
H795        H  0.46738250  0.59343962  0.16229955     0.13300
H796        H  0.51739593  0.58597053  0.16125382     0.13300
H797        H  0.44567399  0.40601797  0.17826308     0.13300
H798        H  0.49489699  0.39847823  0.16929476     0.13300
H799        H  0.45903881  0.49882988  0.15948628     0.26600
H800        H  0.50161329  0.49178453  0.15595886     0.26600
N801        N  0.78121902  0.50031086  0.48100665    -0.36200
N802        N  0.77950679  0.54134679  0.44260362    -0.56700
N803        N  0.79016389  0.50311968  0.40435455    -0.36200
N804        N  0.78824207  0.46125829  0.44225387    -0.56700
C805        C  0.76992715  0.51995729  0.49394862     0.27400
C806        C  0.77704305  0.47806685  0.49406574     0.27400
C807        C  0.78445188  0.52420998  0.38998963     0.27400
C808        C  0.78714056  0.48175183  0.38966515     0.27400
C809        C  0.77892580  0.55591852  0.46379651     0.36000
C810        C  0.78558485  0.55770837  0.42354853     0.36000
C811        C  0.79460261  0.44702402  0.46282512     0.36000
C812        C  0.79725113  0.44812954  0.42199387     0.36000
C813        C  0.75823505  0.51002029  0.51536066    -0.21500
C814        C  0.76289356  0.48360792  0.51553099    -0.21500
C815        C  0.77779279  0.51618643  0.36592457    -0.21500
C816        C  0.77925943  0.48943898  0.36575555    -0.21500
C817        C  0.78468102  0.58162760  0.45822256    -0.22500
C818        C  0.78917459  0.58271428  0.43275519    -0.22500
C819        C  0.80800501  0.42490819  0.45559848    -0.22500
C820        C  0.80956194  0.42554869  0.42971666    -0.22500
C821        C  0.77139908  0.54675638  0.48774379    -0.17900
C822        C  0.78696438  0.45323897  0.48775036    -0.17900
C823        C  0.79325055  0.45577492  0.39662884    -0.17900
C824        C  0.78586397  0.55054556  0.39780199    -0.17900
H825        H  0.74769892  0.52070629  0.52958166     0.15100
H826        H  0.75657102  0.47003605  0.52982851     0.15100
H827        H  0.77229196  0.52833218  0.35013945     0.15100
H828        H  0.77519965  0.47713049  0.34967196     0.15100
H829        H  0.78544882  0.59793117  0.47115273     0.13300
H830        H  0.79411171  0.60004560  0.42225541     0.13300
H831        H  0.81586606  0.40986644  0.46763018     0.13300
H832        H  0.81889445  0.41114754  0.41796202     0.13300
H833        H  0.79356652  0.50235996  0.46574878     0.26600
H834        H  0.79840874  0.50343751  0.42221980     0.26600
N835        N  0.52723010  0.71593018  0.43872304    -0.36200
N836        N  0.49044141  0.72018785  0.47998171    -0.56700
N837        N  0.44819831  0.72098959  0.44390026    -0.36200
N838        N  0.48475506  0.72088766  0.40311676    -0.56700
C839        C  0.54297624  0.72162962  0.45825482     0.27400
C840        C  0.53985916  0.72216098  0.41727061     0.27400
C841        C  0.43576708  0.72700141  0.46546587     0.27400
C842        C  0.43301924  0.72866850  0.42453477     0.27400
C843        C  0.51199804  0.71444375  0.49311249     0.36000
C844        C  0.47052856  0.71597933  0.49580088     0.36000
C845        C  0.50406990  0.71424320  0.38747925     0.36000
C846        C  0.46281351  0.71706764  0.39004943     0.36000
C847        C  0.56606559  0.73110238  0.44913056    -0.21500
C848        C  0.56402713  0.73164227  0.42326446    -0.21500
C849        C  0.41229936  0.73839093  0.45980708    -0.21500
C850        C  0.41062456  0.73959794  0.43396885    -0.21500
C851        C  0.50575087  0.70658765  0.51732137    -0.22500
C852        C  0.47947926  0.70747443  0.51899737    -0.22500
C853        C  0.49442563  0.70582309  0.36452925    -0.22500
C854        C  0.46822672  0.70727756  0.36627025    -0.22500
C855        C  0.53728098  0.71788686  0.48402955    -0.17900
C856        C  0.53016768  0.71884676  0.39252494    -0.17900
C857        C  0.43831522  0.72472945  0.39867804    -0.17900
C858        C  0.44453131  0.72137574  0.49006182    -0.17900
H859        H  0.58254469  0.73736734  0.45999064     0.15100
H860        H  0.57867242  0.73844904  0.41044457     0.15100
H861        H  0.39788543  0.74520822  0.47293154     0.15100
H862        H  0.39462167  0.74750699  0.42341995     0.15100
H863        H  0.51875715  0.70086719  0.53225547     0.13300
H864        H  0.46829119  0.70258117  0.53548937     0.13300
H865        H  0.50519953  0.69966916  0.34813345     0.13300
H866        H  0.45478365  0.70218095  0.35150875     0.13300
H867        H  0.50973221  0.70627590  0.43988925     0.26600
H868        H  0.46475703  0.70974971  0.44258956     0.26600
N869        N  0.23945071  0.46667577  0.44568662    -0.36200
N870        N  0.24027579  0.50694549  0.48483197    -0.56700
N871        N  0.23216375  0.54714363  0.44760322    -0.36200
N872        N  0.23481985  0.50701835  0.40839686    -0.56700
C873        C  0.25078856  0.45383443  0.46497888     0.27400
C874        C  0.24490930  0.45336514  0.42430427     0.27400
C875        C  0.23805527  0.56151959  0.46822776     0.27400
C876        C  0.23831835  0.56156858  0.42713666     0.27400
C877        C  0.24037247  0.48519748  0.49919078     0.36000
C878        C  0.23389901  0.52688803  0.50033282     0.36000
C879        C  0.22983415  0.48613593  0.39363133     0.36000
C880        C  0.22943688  0.52824709  0.39432111     0.36000
C881        C  0.26375738  0.43222883  0.45568238    -0.21500
C882        C  0.25987104  0.43183388  0.43002396    -0.21500
C883        C  0.24783846  0.58539019  0.46078160    -0.21500
C884        C  0.24812350  0.58537575  0.43487850    -0.21500
C885        C  0.23379290  0.49130310  0.52382131    -0.22500
C886        C  0.22958744  0.51769024  0.52451654    -0.22500
C887        C  0.22074428  0.49418106  0.37030806    -0.22500
C888        C  0.22081235  0.52087960  0.37064808    -0.22500
C889        C  0.24832588  0.46033048  0.49082129    -0.17900
C890        C  0.23649077  0.46026053  0.39984858    -0.17900
C891        C  0.23444701  0.55410706  0.40171788    -0.17900
C892        C  0.23488184  0.55349364  0.49355560    -0.17900
H893        H  0.27492031  0.41817056  0.46623374     0.15100
H894        H  0.26760172  0.41758050  0.41704356     0.15100
H895        H  0.25471966  0.60100475  0.47270007     0.15100
H896        H  0.25505850  0.60108866  0.42316162     0.15100
H897        H  0.23246004  0.47818629  0.53972709     0.13300
H898        H  0.22454367  0.52888683  0.54108494     0.13300
H899        H  0.21537822  0.48215134  0.35439499     0.13300
H900        H  0.21542660  0.53345245  0.35513946     0.13300
H901        H  0.22658668  0.48213565  0.44728487     0.26600
H902        H  0.22251670  0.52939701  0.44754922     0.26600
N903        N  0.49501017  0.23094633  0.47672851    -0.36200
N904        N  0.45497542  0.23097355  0.43832169    -0.56700
N905        N  0.49509695  0.23097338  0.39969075    -0.36200
N906        N  0.53434219  0.22680405  0.43825306    -0.56700
C907        C  0.47381904  0.22647604  0.49076318     0.27400
C908        C  0.51556956  0.22408553  0.49086597     0.27400
C909        C  0.47379603  0.22631989  0.38580942     0.27400
C910        C  0.51553961  0.22359179  0.38565881     0.27400
C911        C  0.44143078  0.23877567  0.45872552     0.36000
C912        C  0.44158095  0.23899324  0.41789293     0.36000
C913        C  0.54943766  0.23071557  0.45863915     0.36000
C914        C  0.54946952  0.23031555  0.41787294     0.36000
C915        C  0.48097560  0.21646460  0.51401525    -0.21500
C916        C  0.50733935  0.21490614  0.51406127    -0.21500
C917        C  0.48076509  0.21576488  0.36272229    -0.21500
C918        C  0.50711763  0.21398453  0.36265664    -0.21500
C919        C  0.41943609  0.25185710  0.45124758    -0.22500
C920        C  0.41958038  0.25209601  0.42537396    -0.22500
C921        C  0.57423820  0.23664016  0.45118161    -0.22500
C922        C  0.57426644  0.23635180  0.42534375    -0.22500
C923        C  0.44852150  0.23354553  0.48395786    -0.17900
C924        C  0.54154071  0.22744556  0.48386317    -0.17900
C925        C  0.54158066  0.22660272  0.39266996    -0.17900
C926        C  0.44854143  0.23347003  0.39266888    -0.17900
H927        H  0.46851957  0.21120364  0.52949922     0.15100
H928        H  0.51909605  0.20809371  0.52955361     0.15100
H929        H  0.46819444  0.21014184  0.34739996     0.15100
H930        H  0.51872681  0.20661635  0.34732166     0.15100
H931        H  0.40501130  0.26073925  0.46313473     0.13300
H932        H  0.40525645  0.26121240  0.41350538     0.13300
H933        H  0.59065215  0.24065224  0.46308772     0.13300
H934        H  0.59070014  0.24011484  0.41344719     0.13300
H935        H  0.49555148  0.24119128  0.45984025     0.26600
H936        H  0.49574221  0.24147779  0.41645126     0.26600
C937        C  0.58099271  0.73790649  0.53978684     0.19100
C938        C  0.58361355  0.76130289  0.55319468    -0.19000
C939        C  0.60275424  0.76416222  0.57141649    -0.11200
C940        C  0.61947184  0.74353739  0.57704149     0.21400
C941        C  0.61703236  0.72002509  0.56357742    -0.20600
C942        C  0.59794796  0.71722590  0.54512330    -0.11400
C943        C  0.63957752  0.74783530  0.59646711    -0.15600
C944        C  0.65085518  0.72866573  0.60982991    -0.29400
C945        C  0.55964519  0.73567415  0.52130133    -0.03700
C946        C  0.55902666  0.71834731  0.50228354    -0.40200
H947        H  0.57079919  0.77750442  0.54952221     0.12500
H948        H  0.60432163  0.78252191  0.58138430     0.12200
H949        H  0.62994904  0.70389018  0.56698623     0.11600
H950        H  0.59628664  0.69873205  0.53548827     0.11800
H951        H  0.64463867  0.76793989  0.60052406     0.14600
H952        H  0.64533308  0.70851733  0.60689944     0.13400
H953        H  0.54393669  0.74955272  0.52287726     0.11000
H954        H  0.57537729  0.70580672  0.49860467     0.13000
C955        C  0.75552813  0.62936852  0.58279819     0.19100
C956        C  0.73716927  0.62076063  0.56532172    -0.19000
C957        C  0.74316188  0.60134731  0.54778480    -0.11200
C958        C  0.76775152  0.58997394  0.54737951     0.21400
C959        C  0.78598465  0.59816697  0.56519931    -0.20600
C960        C  0.78002856  0.61773453  0.58267232    -0.11400
C961        C  0.77469025  0.56913793  0.52909630    -0.15600
C962        C  0.76318218  0.56659495  0.50651246    -0.29400
C963        C  0.74803826  0.64964488  0.60149327    -0.03700
C964        C  0.76491624  0.66602230  0.61233588    -0.40200
H965        H  0.71806205  0.62910705  0.56523414     0.12500
H966        H  0.72828328  0.59497533  0.53495857     0.12200
H967        H  0.80493227  0.58945363  0.56554976     0.11600
H968        H  0.79445299  0.62325088  0.59635136     0.11800
H969        H  0.79057469  0.55624134  0.53374858     0.14600
H970        H  0.74904733  0.58080437  0.50040729     0.13400
H971        H  0.72772508  0.65196486  0.60556461     0.11000
H972        H  0.78500599  0.66527339  0.60699944     0.13000
C973        C  0.57458120  0.60937481  0.73386360     0.19100
C974        C  0.56977511  0.63601029  0.73019757    -0.19000
C975        C  0.58990145  0.65310556  0.72473611    -0.11200
C976        C  0.61512443  0.64366760  0.72237553     0.21400
C977        C  0.61991657  0.61707430  0.72599220    -0.20600
C978        C  0.59992139  0.60009746  0.73189926    -0.11400
C979        C  0.63657711  0.66070205  0.71469166    -0.15600
C980        C  0.63853515  0.68570533  0.72196723    -0.29400
C981        C  0.55271668  0.59120498  0.73694345    -0.03700
C982        C  0.55469541  0.56869657  0.74979987    -0.40200
H983        H  0.55035858  0.64350772  0.73118686     0.12500
H984        H  0.58557607  0.67345184  0.72144133     0.12200
H985        H  0.63917617  0.60937059  0.72397051     0.11600
H986        H  0.60422433  0.57956282  0.73377621     0.11800
H987        H  0.65194723  0.65189770  0.70375388     0.14600
H988        H  0.62429560  0.69407334  0.73453716     0.13400
H989        H  0.53497444  0.59589650  0.72716019     0.11000
H990        H  0.57239076  0.56438217  0.75979043     0.13000
C991        C  0.78095179  0.38963500  0.52720599     0.19100
C992        C  0.76334269  0.36898849  0.52640645    -0.19000
C993        C  0.76255709  0.35047637  0.54570766    -0.11200
C994        C  0.77964570  0.35201223  0.56619008     0.21400
C995        C  0.79790110  0.37207314  0.56662989    -0.20600
C996        C  0.79847608  0.39084734  0.54744451    -0.11400
C997        C  0.77847543  0.33314763  0.58740507    -0.15600
C998        C  0.75594763  0.32422015  0.59612494    -0.29400
C999        C  0.78068905  0.40899717  0.50626876    -0.03700
C1000       C  0.78935330  0.43360518  0.50848839    -0.40200
H1001       H  0.74988885  0.36734513  0.51089766     0.12500
H1002       H  0.74867132  0.33486118  0.54448768     0.12200
H1003       H  0.81141763  0.37349913  0.58210888     0.11600
H1004       H  0.81282811  0.40601324  0.54839700     0.11800
H1005       H  0.79606146  0.32848200  0.59749235     0.14600
H1006       H  0.73819250  0.33101740  0.58758498     0.13400
H1007       H  0.77155086  0.40325211  0.48869550     0.11000
H1008       H  0.79618360  0.44048503  0.52665014     0.13000
C1009       C  0.58321721  0.24254210  0.54240119     0.19100
C1010       C  0.58679771  0.26495221  0.55717652    -0.19000
C1011       C  0.60649700  0.26608842  0.57512186    -0.11200
C1012       C  0.62298073  0.24465830  0.57869477     0.21400
C1013       C  0.61913397  0.22215690  0.56414432    -0.20600
C1014       C  0.59950778  0.22103381  0.54624909    -0.11400
C1015       C  0.64353109  0.24416259  0.59812938    -0.15600
C1016       C  0.65329910  0.26536337  0.60966862    -0.29400
C1017       C  0.56201250  0.24202193  0.52363170    -0.03700
C1018       C  0.56191905  0.22610885  0.50346784    -0.40200
H1019       H  0.57430084  0.28165988  0.55481778     0.12500
H1020       H  0.60828840  0.28353056  0.58640517     0.12200
H1021       H  0.63128408  0.20522167  0.56675885     0.11600
H1022       H  0.59690578  0.20305808  0.53593167     0.11800
H1023       H  0.65130764  0.22512240  0.60286805     0.14600
H1024       H  0.64676408  0.28474989  0.60468999     0.13400
H1025       H  0.54653865  0.25609373  0.52569300     0.11000
H1026       H  0.57826424  0.21360872  0.49967538     0.13000
C1027       C  0.57298156  0.38878398  0.74104603     0.19100
C1028       C  0.57349401  0.37118414  0.72081930    -0.11000
C1029       C  0.59153363  0.35109278  0.72004328    -0.11200
C1030       C  0.60954284  0.34803067  0.73959470     0.21400
C1031       C  0.60786186  0.36439764  0.76077003    -0.20600
C1032       C  0.58983142  0.38474416  0.76147424    -0.11400
C1033       C  0.63086524  0.32877573  0.73744702    -0.15600
C1034       C  0.64231808  0.32439153  0.71510306    -0.29400
C1035       C  0.55420185  0.41056655  0.73995225    -0.03700
C1036       C  0.55546487  0.43255264  0.75379812    -0.40200
H1037       H  0.56025863  0.37335966  0.70518117     0.12500
H1038       H  0.59159429  0.33816334  0.70390927     0.12200
H1039       H  0.62113600  0.36205244  0.77633982     0.11600
H1040       H  0.58927594  0.39723856  0.77789168     0.11800
H1041       H  0.63858718  0.31993894  0.75445093     0.14600
H1042       H  0.63582788  0.33523838  0.69869501     0.13400
H1043       H  0.53887680  0.40889861  0.72610330     0.11000
H1044       H  0.57170498  0.43609294  0.76614802     0.13000
C1045       C  0.34898957  0.23713324  0.56302037     0.19100
C1046       C  0.37066414  0.25333243  0.56222606    -0.19000
C1047       C  0.38916364  0.25046492  0.54338396    -0.11200
C1048       C  0.38658449  0.23106290  0.52478585     0.21400
C1049       C  0.36472585  0.21507966  0.52531008    -0.20600
C1050       C  0.34612478  0.21800124  0.54417990    -0.11400
C1051       C  0.40569384  0.22750123  0.50413993    -0.15600
C1052       C  0.42963870  0.23737886  0.50474982    -0.29400
C1053       C  0.32995383  0.24149813  0.58359291    -0.03700
C1054       C  0.31038590  0.22538325  0.58943466    -0.40200
H1055       H  0.37329987  0.26844529  0.57626065     0.12500
H1056       H  0.40510558  0.26388864  0.54336012     0.12200
H1057       H  0.36200905  0.20023619  0.51102874     0.11600
H1058       H  0.32953596  0.20542637  0.54361725     0.11800
H1059       H  0.40007636  0.21576164  0.48798894     0.14600
H1060       H  0.43655523  0.24720263  0.52151946     0.13400
H1061       H  0.33283648  0.25872747  0.59517225     0.11000
H1062       H  0.30734375  0.20754264  0.57892935     0.13000
C1063       C  0.25555973  0.36056207  0.56939838     0.19100
C1064       C  0.27395798  0.38013138  0.56604724    -0.19000
C1065       C  0.27136380  0.39822306  0.54650341    -0.11200
C1066       C  0.25029730  0.39689083  0.52988086     0.21400
C1067       C  0.23267628  0.37649363  0.53249700    -0.20600
C1068       C  0.23520814  0.35852734  0.55204463    -0.11400
C1069       C  0.24595140  0.41624028  0.50958853    -0.15600
C1070       C  0.25512447  0.44068143  0.51036755    -0.29400
C1071       C  0.25819212  0.34217079  0.59076277    -0.03700
C1072       C  0.23762269  0.33135892  0.60178079    -0.40200
H1073       H  0.29011750  0.38168171  0.57883414     0.12500
H1074       H  0.28592334  0.41305317  0.54445054     0.12200
H1075       H  0.21662252  0.37469613  0.51960746     0.11600
H1076       H  0.22129192  0.34297076  0.55337631     0.11800
H1077       H  0.23322889  0.41079023  0.49420176     0.14600
H1078       H  0.26584121  0.44730543  0.52670756     0.13400
H1079       H  0.27730939  0.33796027  0.59790759     0.11000
H1080       H  0.21846118  0.33682395  0.59564207     0.13000
C1081       C  0.38513626  0.41018846  0.71632713     0.19100
C1082       C  0.35995269  0.41094832  0.72558099    -0.19000
C1083       C  0.34207633  0.39213244  0.71838849    -0.11200
C1084       C  0.34910367  0.37187938  0.70186884     0.21400
C1085       C  0.37405248  0.37150642  0.69202958    -0.20600
C1086       C  0.39190918  0.39043239  0.69910404    -0.11400
C1087       C  0.33100906  0.35093379  0.69441723    -0.15600
C1088       C  0.31052459  0.34433341  0.70839160    -0.29400
C1089       C  0.40318888  0.43102920  0.72427115    -0.03700
C1090       C  0.42863541  0.43033905  0.72012580    -0.40200
H1091       H  0.35402304  0.42624391  0.73840658     0.12500
H1092       H  0.32276223  0.39384601  0.72560589     0.12200
H1093       H  0.37982429  0.35638710  0.67893943     0.11600
H1094       H  0.41074782  0.38953936  0.69068875     0.11800
H1095       H  0.33555469  0.33960575  0.67767921     0.14600
H1096       H  0.30650174  0.35442287  0.72591260     0.13400
H1097       H  0.39520720  0.44770923  0.73419098     0.11000
H1098       H  0.43757753  0.41300353  0.71244533     0.13000
C1099       C  0.85597960  0.85956731  0.66945287     0.19100
C1100       C  0.86242591  0.87819489  0.68774755    -0.19000
C1101       C  0.88199330  0.89613264  0.68346013    -0.11200
C1102       C  0.89537090  0.89620218  0.66044292     0.21400
C1103       C  0.88901455  0.87753650  0.64211415    -0.20600
C1104       C  0.86940580  0.85946843  0.64644449    -0.11400
C1105       C  0.91645494  0.91493415  0.65531106    -0.15600
C1106       C  0.91875803  0.93784365  0.66747018    -0.29400
C1107       C  0.83501323  0.84103451  0.67542452    -0.03700
C1108       C  0.83011999  0.81879630  0.66278009    -0.40200
H1109       H  0.85248368  0.87867144  0.70567128     0.12500
H1110       H  0.88680960  0.90950636  0.69848597     0.12200
H1111       H  0.89910573  0.87709072  0.62427954     0.11600
H1112       H  0.86476528  0.84580008  0.63162784     0.11800
H1113       H  0.93019833  0.91004335  0.64065277     0.14600
H1114       H  0.90385240  0.94408446  0.68039195     0.13400
H1115       H  0.82337716  0.84573761  0.69180699     0.11000
H1116       H  0.84152519  0.81315388  0.64659648     0.13000
C1117       C  0.86960225  0.15388560  0.68353849     0.19100
C1118       C  0.87182726  0.13281125  0.70029525    -0.19000
C1119       C  0.89092420  0.11394960  0.69720084    -0.11200
C1120       C  0.90837246  0.11556741  0.67707554     0.21400
C1121       C  0.90687194  0.13715356  0.66084650    -0.20600
C1122       C  0.88764819  0.15608291  0.66390925    -0.11400
C1123       C  0.92832236  0.09521655  0.67259020    -0.15600
C1124       C  0.92594580  0.07036756  0.68049918    -0.29400
C1125       C  0.84810472  0.17268072  0.68764285    -0.03700
C1126       C  0.84091954  0.19196391  0.67177314    -0.40200
H1127       H  0.85853082  0.13075900  0.71584755     0.12500
H1128       H  0.89198883  0.09827532  0.71076949     0.12200
H1129       H  0.92035905  0.13914023  0.64545052     0.11600
H1130       H  0.88711112  0.17222237  0.65086360     0.11800
H1131       H  0.94482570  0.10040527  0.66115206     0.14600
H1132       H  0.90854658  0.06433998  0.69002952     0.13400
H1133       H  0.83688444  0.16976144  0.70465838     0.11000
H1134       H  0.85128877  0.19540618  0.65440236     0.13000
C1135       C  0.09658210  0.08902814  0.66549044     0.19100
C1136       C  0.11633085  0.09218407  0.64786985    -0.19000
C1137       C  0.13724351  0.10827083  0.65314321    -0.11200
C1138       C  0.13874954  0.12169090  0.67626340     0.21400
C1139       C  0.11897733  0.11839056  0.69393098    -0.20600
C1140       C  0.09808923  0.10229689  0.68864338    -0.11400
C1141       C  0.15943530  0.14060167  0.68222178    -0.15600
C1142       C  0.18025937  0.14492417  0.66775974    -0.29400
C1143       C  0.07434778  0.07250741  0.65870411    -0.03700
C1144       C  0.05986441  0.06029947  0.67590783    -0.40200
H1145       H  0.11550501  0.08224860  0.62985778     0.12500
H1146       H  0.15166533  0.11040889  0.63872127     0.12200
H1147       H  0.11942142  0.12871787  0.71175238     0.11600
H1148       H  0.08287978  0.10098371  0.70243060     0.11800
H1149       H  0.15670467  0.15241419  0.69902668     0.14600
H1150       H  0.18385941  0.13357267  0.65092729     0.13400
H1151       H  0.07032011  0.06938079  0.63881044     0.11000
H1152       H  0.06355547  0.06273236  0.69589781     0.13000
C1153       C  0.23283494  0.65541220  0.57129327     0.19100
C1154       C  0.25293018  0.63804584  0.56578784    -0.19000
C1155       C  0.25014750  0.61880369  0.54737739    -0.11200
C1156       C  0.22701036  0.61624410  0.53396048     0.21400
C1157       C  0.20706642  0.63400523  0.53888425    -0.20600
C1158       C  0.20981524  0.65331361  0.55748262    -0.11400
C1159       C  0.22370201  0.59594359  0.51411069    -0.15600
C1160       C  0.23666951  0.57317309  0.51427995    -0.29400
C1161       C  0.23686518  0.67431127  0.59230791    -0.03700
C1162       C  0.22121828  0.69429443  0.59867048    -0.40200
H1163       H  0.27097982  0.63928658  0.57588659     0.12500
H1164       H  0.26634090  0.60621631  0.54350540     0.12200
H1165       H  0.18915049  0.63266085  0.52858387     0.11600
H1166       H  0.19377196  0.66612223  0.56115503     0.11800
H1167       H  0.21005548  0.59968490  0.49902134     0.14600
H1168       H  0.24858156  0.56826917  0.53040129     0.13400
H1169       H  0.25415586  0.67133013  0.60343077     0.11000
H1170       H  0.20410308  0.69850341  0.58775503     0.13000
C1171       C  0.40687503  0.74105914  0.54958662     0.19100
C1172       C  0.38998233  0.72076218  0.55591846    -0.19000
C1173       C  0.37084146  0.72462353  0.57402014    -0.11200
C1174       C  0.36832007  0.74884514  0.58631259     0.21400
C1175       C  0.38528047  0.76899673  0.57989886    -0.20600
C1176       C  0.40446396  0.76507634  0.56192196    -0.11400
C1177       C  0.34806125  0.75429919  0.60538791    -0.15600
C1178       C  0.33408401  0.73583345  0.61705129    -0.29400
C1179       C  0.42728369  0.73791283  0.53036707    -0.03700
C1180       C  0.42515856  0.72169121  0.51059567    -0.40200
H1181       H  0.39162555  0.70181449  0.54710935     0.12500
H1182       H  0.35798206  0.70865229  0.57790972     0.12200
H1183       H  0.38373931  0.78788555  0.58889443     0.11600
H1184       H  0.41725338  0.78100261  0.55736665     0.11800
H1185       H  0.34482680  0.77458959  0.61033900     0.14600
H1186       H  0.33734313  0.71537992  0.61314449     0.13400
H1187       H  0.44383993  0.75073332  0.53142744     0.11000
H1188       H  0.40761665  0.71069642  0.50770491     0.13000
C1189       C  0.40152001  0.60627108  0.71870790     0.19100
C1190       C  0.40474140  0.63314163  0.72210917    -0.19000
C1191       C  0.38393041  0.65012124  0.71931658    -0.11200
C1192       C  0.35960468  0.64047540  0.71261593     0.21400
C1193       C  0.35658639  0.61370751  0.70839994    -0.20600
C1194       C  0.37727509  0.59669244  0.71159313    -0.11400
C1195       C  0.33744876  0.65803380  0.70849098    -0.15600
C1196       C  0.33383286  0.67995069  0.72191112    -0.29400
C1197       C  0.42389979  0.58874210  0.72180476    -0.03700
C1198       C  0.42151435  0.56443652  0.73082280    -0.40200
H1199       H  0.42335999  0.64096411  0.72712632     0.12500
H1200       H  0.38703688  0.67080096  0.72184105     0.12200
H1201       H  0.33813630  0.60594659  0.70272183     0.11600
H1202       H  0.37437388  0.57616122  0.70794065     0.11800
H1203       H  0.32339489  0.65237701  0.69435391     0.14600
H1204       H  0.34684718  0.68477098  0.73723802     0.13400
H1205       H  0.44274463  0.59611931  0.71681860     0.11000
H1206       H  0.40262871  0.55719702  0.73585317     0.13000
C1207       C  0.12599697  0.86517571  0.65109897     0.19100
C1208       C  0.10006713  0.86081075  0.64541422    -0.19000
C1209       C  0.08250256  0.88150184  0.64569709    -0.11200
C1210       C  0.09077036  0.90694418  0.65142662     0.21400
C1211       C  0.11686196  0.91136950  0.65605575    -0.20600
C1212       C  0.13434786  0.89080890  0.65562896    -0.11400
C1213       C  0.07273954  0.92905436  0.65444707    -0.15600
C1214       C  0.05015850  0.93086544  0.64232948    -0.29400
C1215       C  0.14390506  0.84281035  0.65360429    -0.03700
C1216       C  0.16221285  0.84301091  0.67142776    -0.40200
H1217       H  0.09322602  0.84124084  0.64182944     0.12500
H1218       H  0.06242445  0.87730139  0.64249788     0.12200
H1219       H  0.12370710  0.93080610  0.66030033     0.11600
H1220       H  0.15438018  0.89497252  0.65923865     0.11800
H1221       H  0.07843265  0.94466274  0.66712810     0.14600
H1222       H  0.04385763  0.91531273  0.62992617     0.13400
H1223       H  0.14095304  0.82554340  0.64211271     0.11000
H1224       H  0.16347036  0.85954289  0.68418639     0.13000
C1225       C  0.12508460  0.76823766  0.80830911     0.19100
C1226       C  0.10585681  0.74949455  0.81142210    -0.19000
C1227       C  0.08789532  0.75178918  0.83071200    -0.11200
C1228       C  0.08872116  0.77302010  0.84747830     0.21400
C1229       C  0.10803884  0.79180187  0.84449514    -0.20600
C1230       C  0.12605658  0.78953286  0.82502987    -0.11400
C1231       C  0.07077051  0.77501032  0.86910946    -0.15600
C1232       C  0.04787354  0.76296897  0.86940847    -0.29400
C1233       C  0.14451233  0.76369335  0.78839062    -0.03700
C1234       C  0.15882159  0.78250096  0.77779890    -0.40200
H1235       H  0.10491882  0.73273303  0.79902876     0.12500
H1236       H  0.07400724  0.73633397  0.83284061     0.12200
H1237       H  0.10934941  0.80809909  0.85741958     0.11600
H1238       H  0.14106966  0.80398282  0.82366640     0.11800
H1239       H  0.07651369  0.78660570  0.88531774     0.14600
H1240       H  0.04075763  0.75339676  0.85255721     0.13400
H1241       H  0.14665124  0.74377414  0.78174336     0.11000
H1242       H  0.15643488  0.80267465  0.78346687     0.13000
C1243       C  0.84672129  0.75684228  0.81430586     0.19100
C1244       C  0.84456729  0.75107108  0.84005326    -0.19000
C1245       C  0.86645186  0.74997496  0.85530060    -0.11200
C1246       C  0.89089106  0.75406005  0.84484088     0.21400
C1247       C  0.89309340  0.75927040  0.81903004    -0.20600
C1248       C  0.87118052  0.76100097  0.80391512    -0.11400
C1249       C  0.91434159  0.75260229  0.86046136    -0.15600
C1250       C  0.91540788  0.76360280  0.88340007    -0.29400
C1251       C  0.82367435  0.75564216  0.79804562    -0.03700
C1252       C  0.82058257  0.77088613  0.77767250    -0.40200
H1253       H  0.82594498  0.74728779  0.84831753     0.12500
H1254       H  0.86434098  0.74532722  0.87510159     0.12200
H1255       H  0.91179688  0.76218525  0.81061286     0.11600
H1256       H  0.87346125  0.76467201  0.78394961     0.11800
H1257       H  0.93122385  0.74321410  0.85258410     0.14600
H1258       H  0.89834821  0.77292522  0.89100037     0.13400
H1259       H  0.80911523  0.74126815  0.80262815     0.11000
H1260       H  0.83383139  0.78677384  0.77410437     0.13000
C1261       C  0.73075622  0.90744461  0.84496646     0.19100
C1262       C  0.71639863  0.88436186  0.84813341    -0.19000
C1263       C  0.71666866  0.86481624  0.82957565    -0.11200
C1264       C  0.73125154  0.86795195  0.80748479     0.21400
C1265       C  0.74574231  0.89076594  0.80460469    -0.20600
C1266       C  0.74542462  0.91022190  0.82298584    -0.11400
C1267       C  0.73301091  0.84788037  0.78727444    -0.15600
C1268       C  0.71644993  0.82800174  0.78356915    -0.29400
C1269       C  0.73109926  0.92934724  0.86354656    -0.03700
C1270       C  0.71834842  0.92970595  0.88561301    -0.40200
H1271       H  0.70489293  0.88111089  0.86473665     0.12500
H1272       H  0.70575178  0.84724049  0.83280060     0.12200
H1273       H  0.75734281  0.89366387  0.78790892     0.11600
H1274       H  0.75673531  0.92762153  0.81993541     0.11800
H1275       H  0.74879472  0.85021556  0.77410226     0.14600
H1276       H  0.69988296  0.82558513  0.79569375     0.13400
H1277       H  0.74264256  0.94627342  0.85882111     0.11000
H1278       H  0.70772187  0.91278386  0.89180399     0.13000
C1279       C  0.72788759  0.14399754  0.81278524     0.19100
C1280       C  0.74380689  0.12203805  0.81526101    -0.19000
C1281       C  0.73943148  0.10351572  0.83411774    -0.11200
C1282       C  0.71887805  0.10647776  0.85111036     0.21400
C1283       C  0.70308854  0.12854646  0.84879063    -0.20600
C1284       C  0.70749475  0.14710992  0.82994720    -0.11400
C1285       C  0.71423242  0.08806045  0.87239912    -0.15600
C1286       C  0.72493229  0.06420771  0.87418983    -0.29400
C1287       C  0.73377520  0.16329474  0.79252203    -0.03700
C1288       C  0.71749443  0.18211194  0.78468709    -0.40200
H1289       H  0.75986652  0.11923635  0.80259226     0.12500
H1290       H  0.75265618  0.08735625  0.83554402     0.12200
H1291       H  0.68737724  0.13160798  0.86181826     0.11600
H1292       H  0.69513212  0.16400578  0.82937450     0.11800
H1293       H  0.70149417  0.09444129  0.88740221     0.14600
H1294       H  0.73585564  0.05632802  0.85856532     0.13400
H1295       H  0.75224840  0.16145795  0.78319480     0.11000
H1296       H  0.69863358  0.18397014  0.79306885     0.13000
C1297       C  0.86289052  0.26357189  0.80436718     0.19100
C1298       C  0.86817624  0.28366248  0.82156704    -0.19000
C1299       C  0.88890348  0.28171587  0.83827994    -0.11200
C1300       C  0.90491776  0.25960284  0.83799841     0.21400
C1301       C  0.90015000  0.23995565  0.82022257    -0.20600
C1302       C  0.87934631  0.24181316  0.80363923    -0.11400
C1303       C  0.92716565  0.25671550  0.85537602    -0.15600
C1304       C  0.92825483  0.26806370  0.87823454    -0.29400
C1305       C  0.84081530  0.26649074  0.78678726    -0.03700
C1306       C  0.82905875  0.24618956  0.77557823    -0.40200
H1307       H  0.85615656  0.30089264  0.82214233     0.12500
H1308       H  0.89254311  0.29772476  0.85106442     0.12200
H1309       H  0.91249957  0.22299078  0.81926378     0.11600
H1310       H  0.87660636  0.22639194  0.79000823     0.11800
H1311       H  0.94272561  0.24388444  0.84967165     0.14600
H1312       H  0.91174083  0.27875311  0.88523091     0.13400
H1313       H  0.83370816  0.28608735  0.78335188     0.11000
H1314       H  0.83500626  0.22640843  0.77980442     0.13000
C1315       C  0.13543625  0.26083166  0.80510924     0.19100
C1316       C  0.12105062  0.24033526  0.81525031    -0.19000
C1317       C  0.10402127  0.24475803  0.83506033    -0.11200
C1318       C  0.10059976  0.26997743  0.84489252     0.21400
C1319       C  0.11508417  0.29052001  0.83491947    -0.20600
C1320       C  0.13217975  0.28609163  0.81503270    -0.11400
C1321       C  0.08250426  0.27500403  0.86591221    -0.15600
C1322       C  0.06134653  0.26048763  0.86931547    -0.29400
C1323       C  0.15344060  0.25494231  0.78419710    -0.03700
C1324       C  0.17410573  0.26959750  0.77887774    -0.40200
H1325       H  0.12328453  0.22070122  0.80806639     0.12500
H1326       H  0.09387954  0.22827408  0.84288878     0.12200
H1327       H  0.11286114  0.31008962  0.84226113     0.11600
H1328       H  0.14241955  0.30254907  0.80731707     0.11800
H1329       H  0.08638444  0.29111201  0.87866951     0.14600
H1330       H  0.05586646  0.24616824  0.85523743     0.13400
H1331       H  0.15017095  0.23714751  0.77354808     0.11000
H1332       H  0.17820834  0.28694913  0.78982809     0.13000
C1333       C  0.27070229  0.09602359  0.84775574     0.19100
C1334       C  0.25162019  0.09585487  0.82910856    -0.19000
C1335       C  0.25106017  0.11488509  0.81033723    -0.11200
C1336       C  0.26971265  0.13466350  0.80970650     0.21400
C1337       C  0.28900326  0.13476049  0.82825063    -0.20600
C1338       C  0.28949141  0.11570653  0.84717142    -0.11400
C1339       C  0.27027148  0.15450600  0.78924853    -0.15600
C1340       C  0.24930562  0.16128277  0.77585592    -0.29400
C1341       C  0.27131422  0.07419892  0.86614492    -0.03700
C1342       C  0.28329855  0.07512684  0.88860250    -0.40200
H1343       H  0.23720683  0.08067281  0.82885950     0.12500
H1344       H  0.23641516  0.11343399  0.79595004     0.12200
H1345       H  0.30384723  0.14950823  0.82798035     0.11600
H1346       H  0.30499272  0.11603009  0.86075738     0.11800
H1347       H  0.28839838  0.16416582  0.78543602     0.14600
H1348       H  0.23073057  0.15317089  0.78062132     0.13400
H1349       H  0.26126356  0.05641378  0.86102400     0.11000
H1350       H  0.29140336  0.09329262  0.89537912     0.13000
C1351       C  0.27561300  0.87084739  0.81064064     0.19100
C1352       C  0.28259002  0.89687751  0.80646516    -0.19000
C1353       C  0.28628852  0.91384192  0.82681191    -0.11200
C1354       C  0.28229769  0.90512553  0.85159443     0.21400
C1355       C  0.27485914  0.87924987  0.85570481    -0.20600
C1356       C  0.27182808  0.86214109  0.83544902    -0.11400
C1357       C  0.28375713  0.92300486  0.87337698    -0.15600
C1358       C  0.30182877  0.94151020  0.87590188    -0.29400
C1359       C  0.27044324  0.85359996  0.78889229    -0.03700
C1360       C  0.27624347  0.82804685  0.78900945    -0.40200
H1361       H  0.28510865  0.90407164  0.78743661     0.12500
H1362       H  0.29135733  0.93392594  0.82313469     0.12200
H1363       H  0.27128766  0.87231000  0.87466010     0.11600
H1364       H  0.26567804  0.84237595  0.83914245     0.11800
H1365       H  0.26979622  0.92027694  0.88834561     0.14600
H1366       H  0.31589918  0.94427499  0.86108379     0.13400
H1367       H  0.26181842  0.86229005  0.77221914     0.11000
H1368       H  0.28675303  0.81969164  0.80476082     0.13000
C1369       C  0.39893275  0.74567872  0.34069000     0.19100
C1370       C  0.40166442  0.73857697  0.31533207    -0.19000
C1371       C  0.38119169  0.74174018  0.29857774    -0.11200
C1372       C  0.35797770  0.75273449  0.30690186     0.21400
C1373       C  0.35566175  0.76078307  0.33205404    -0.20600
C1374       C  0.37587572  0.75692841  0.34896183    -0.11400
C1375       C  0.33626681  0.75679765  0.28945770    -0.15600
C1376       C  0.32988639  0.73919506  0.27179574    -0.29400
C1377       C  0.42041135  0.74152542  0.35828657    -0.03700
C1378       C  0.41705584  0.72906471  0.38030853    -0.40200
H1379       H  0.41947205  0.73014582  0.30864246     0.12500
H1380       H  0.38363418  0.73600428  0.27907639     0.12200
H1381       H  0.33804179  0.76965191  0.33868928     0.11600
H1382       H  0.37366240  0.76298465  0.36840573     0.11800
H1383       H  0.32453920  0.77413052  0.29199615     0.14600
H1384       H  0.34019549  0.72081526  0.27065149     0.13400
H1385       H  0.43934724  0.74800799  0.35256105     0.11000
H1386       H  0.39786317  0.72283233  0.38552809     0.13000
C1387       C  0.22850860  0.61532839  0.36004463     0.19100
C1388       C  0.20774699  0.63097701  0.35272663    -0.19000
C1389       C  0.21012766  0.64832654  0.33254687    -0.11200
C1390       C  0.23363070  0.65066309  0.31958211     0.21400
C1391       C  0.25457127  0.63554139  0.32755886    -0.20600
C1392       C  0.25210605  0.61810784  0.34756081    -0.11400
C1393       C  0.23727827  0.66784215  0.29730743    -0.15600
C1394       C  0.22002689  0.68543918  0.28915761    -0.29400
C1395       C  0.22518167  0.59633798  0.38078383    -0.03700
C1396       C  0.23793423  0.57358392  0.38130773    -0.40200
H1397       H  0.18944167  0.62927721  0.36223632     0.12500
H1398       H  0.19333547  0.65931027  0.32709568     0.12200
H1399       H  0.27294865  0.63708875  0.31815708     0.11600
H1400       H  0.26875158  0.60694104  0.35329887     0.11800
H1401       H  0.25532543  0.66601020  0.28719991     0.14600
H1402       H  0.20218872  0.68856576  0.29916578     0.13400
H1403       H  0.21111276  0.60052330  0.39534876     0.11000
H1404       H  0.25002999  0.56807815  0.36550765     0.13000
C1405       C  0.35373713  0.63976734  0.17439521     0.19100
C1406       C  0.36510227  0.63525583  0.15074348    -0.19000
C1407       C  0.38205668  0.61430081  0.14744082    -0.11200
C1408       C  0.38787609  0.59762794  0.16776072     0.21400
C1409       C  0.37654320  0.60229818  0.19122788    -0.20600
C1410       C  0.35970524  0.62307932  0.19450397    -0.11400
C1411       C  0.40458326  0.57443693  0.16529794    -0.15600
C1412       C  0.42220874  0.57130290  0.14716776    -0.29400
C1413       C  0.33437809  0.66040133  0.17900286    -0.03700
C1414       C  0.33040504  0.68166006  0.16454198    -0.40200
H1415       H  0.36041067  0.64726928  0.13464232     0.12500
H1416       H  0.38988289  0.61082181  0.12886508     0.12200
H1417       H  0.38060759  0.58968666  0.20711752     0.11600
H1418       H  0.35110356  0.62598986  0.21287873     0.11800
H1419       H  0.40308032  0.55951698  0.17977262     0.14600
H1420       H  0.42610210  0.58676208  0.13377794     0.13400
H1421       H  0.32285927  0.65791639  0.19589257     0.11000
H1422       H  0.34190684  0.68515932  0.14786525     0.13000
C1423       C  0.28193773  0.88913130  0.02886070     0.19100
C1424       C  0.25922268  0.87479040  0.03175867    -0.19000
C1425       C  0.25742907  0.85515696  0.04988784    -0.11200
C1426       C  0.27840712  0.84934405  0.06564729     0.21400
C1427       C  0.30151984  0.86282546  0.06204497    -0.20600
C1428       C  0.30330377  0.88260014  0.04391834    -0.11400
C1429       C  0.27646769  0.82966057  0.08615601    -0.15600
C1430       C  0.25437757  0.82568136  0.09865627    -0.29400
C1431       C  0.28232631  0.91037171  0.00974300    -0.03700
C1432       C  0.30020687  0.92924840  0.00850318    -0.40200
H1433       H  0.24261945  0.87900059  0.02012442     0.12500
H1434       H  0.23958849  0.84452449  0.05145130     0.12200
H1435       H  0.31807847  0.85843234  0.07366949     0.11600
H1436       H  0.32144005  0.89252982  0.04180088     0.11800
H1437       H  0.29384463  0.81984273  0.09238574     0.14600
H1438       H  0.23756189  0.83715872  0.09379456     0.13400
H1439       H  0.26641429  0.91121373  0.99646470     0.11000
H1440       H  0.31544017  0.93040781  0.02238716     0.13000
C1441       C  0.12691988  0.75944165  0.07281397     0.19100
C1442       C  0.12730851  0.74327602  0.05147063    -0.19000
C1443       C  0.10939737  0.74661467  0.03209339    -0.11200
C1444       C  0.09046859  0.76608436  0.03385714     0.21400
C1445       C  0.09038996  0.78260752  0.05492525    -0.20600
C1446       C  0.10827108  0.77925314  0.07431988    -0.11400
C1447       C  0.07025869  0.76954037  0.01443403    -0.15600
C1448       C  0.06166923  0.75005695  0.99975538    -0.29400
C1449       C  0.14563274  0.75439750  0.09341373    -0.03700
C1450       C  0.15288616  0.77257373  0.11024728    -0.40200
H1451       H  0.14155804  0.72798778  0.04977726     0.12500
H1452       H  0.11055338  0.73400308  0.01579023     0.12200
H1453       H  0.07597666  0.79773070  0.05671360     0.11600
H1454       H  0.10688076  0.79174391  0.09068400     0.11800
H1455       H  0.06060072  0.78830904  0.01344169     0.14600
H1456       H  0.07034637  0.73085844  0.00050629     0.13400
H1457       H  0.15450002  0.73523324  0.09412288     0.11000
H1458       H  0.14555690  0.79231109  0.10884095     0.13000
C1459       C  0.77034500  0.61125367  0.35656377     0.19100
C1460       C  0.74716939  0.62388179  0.35073419    -0.19000
C1461       C  0.74591575  0.64221794  0.33126217    -0.11200
C1462       C  0.76798374  0.64866478  0.31737917     0.21400
C1463       C  0.79148312  0.63718712  0.32412185    -0.20600
C1464       C  0.79266115  0.61846212  0.34335529    -0.11400
C1465       C  0.76679783  0.66708091  0.29572454    -0.15600
C1466       C  0.74664498  0.66747922  0.27980485    -0.29400
C1467       C  0.77049647  0.59120921  0.37689033    -0.03700
C1468       C  0.78718391  0.57112619  0.37784638    -0.40200
H1469       H  0.72982143  0.61915805  0.36097342     0.12500
H1470       H  0.72766398  0.65138494  0.32712443     0.12200
H1471       H  0.80883963  0.64222703  0.31404229     0.11600
H1472       H  0.81104084  0.60983285  0.34794183     0.11800
H1473       H  0.78339574  0.67921773  0.29187608     0.14600
H1474       H  0.73099021  0.65385556  0.28270932     0.13400
H1475       H  0.75534125  0.59214999  0.39092135     0.11000
H1476       H  0.80080030  0.56831348  0.36261096     0.13000
C1477       C  0.58547626  0.71676146  0.34401032     0.19100
C1478       C  0.60407277  0.69832347  0.33706874    -0.19000
C1479       C  0.62000015  0.70267515  0.31629327    -0.11200
C1480       C  0.61760824  0.72568453  0.30206609     0.21400
C1481       C  0.59930933  0.74426649  0.30923094    -0.20600
C1482       C  0.58341588  0.73993337  0.32993263    -0.11400
C1483       C  0.63484278  0.73182513  0.28069282    -0.15600
C1484       C  0.64687419  0.71361098  0.26681199    -0.29400
C1485       C  0.56927843  0.71174493  0.36652345    -0.03700
C1486       C  0.54675375  0.72384072  0.37032972    -0.40200
H1487       H  0.60636890  0.68054746  0.34783353     0.12500
H1488       H  0.63453488  0.68831742  0.31189828     0.12200
H1489       H  0.59742652  0.76234609  0.29886064     0.11600
H1490       H  0.57009004  0.75516957  0.33510975     0.11800
H1491       H  0.63739897  0.75226892  0.27602092     0.14600
H1492       H  0.64356150  0.69307621  0.27036319     0.13400
H1493       H  0.57563969  0.69719250  0.38004306     0.11000
H1494       H  0.53886062  0.73649464  0.35589603     0.13000
C1495       C  0.58045702  0.59008419  0.13795435     0.19100
C1496       C  0.57823112  0.61641688  0.13127569    -0.19000
C1497       C  0.59735032  0.63417325  0.13790362    -0.11200
C1498       C  0.61923393  0.62579060  0.15118121     0.21400
C1499       C  0.62182067  0.59937314  0.15723128    -0.20600
C1500       C  0.60283142  0.58159414  0.15043186    -0.11400
C1501       C  0.63917725  0.64412015  0.15999260    -0.15600
C1502       C  0.64418418  0.66682312  0.14845227    -0.29400
C1503       C  0.55848478  0.57255577  0.13277895    -0.03700
C1504       C  0.55463817  0.55021317  0.14534585    -0.40200
H1505       H  0.56122344  0.62345394  0.12165906     0.12500
H1506       H  0.59443391  0.65450527  0.13339357     0.12200
H1507       H  0.63860418  0.59246526  0.16731055     0.11600
H1508       H  0.60587054  0.56136186  0.15515772     0.11800
H1509       H  0.65071846  0.63823203  0.17611137     0.14600
H1510       H  0.63394139  0.67224939  0.13141238     0.13400
H1511       H  0.54373639  0.57924595  0.11976866     0.11000
H1512       H  0.56876648  0.54273097  0.15847864     0.13000
C1513       C  0.85372342  0.75194075  0.07529589     0.19100
C1514       C  0.87113823  0.73206108  0.06916661    -0.19000
C1515       C  0.88890770  0.73539744  0.04978310    -0.11200
C1516       C  0.88962751  0.75882006  0.03605327     0.21400
C1517       C  0.87194784  0.77854186  0.04187872    -0.20600
C1518       C  0.85418273  0.77522243  0.06132694    -0.11400
C1519       C  0.90771545  0.76288172  0.01487493    -0.15600
C1520       C  0.92986838  0.74968840  0.01250476    -0.29400
C1521       C  0.83445417  0.74687220  0.09525257    -0.03700
C1522       C  0.82138559  0.76561083  0.10759854    -0.40200
H1523       H  0.87086312  0.71374947  0.07930311     0.12500
H1524       H  0.90152760  0.71931902  0.04528152     0.12200
H1525       H  0.87181671  0.79656224  0.03126659     0.11600
H1526       H  0.84050857  0.79065629  0.06483297     0.11800
H1527       H  0.90300056  0.77769799  0.00097208     0.14600
H1528       H  0.93614678  0.73646061  0.02721756     0.13400
H1529       H  0.83107433  0.72660119  0.10010983     0.11000
H1530       H  0.82519781  0.78602351  0.10395320     0.13000
C1531       C  0.71873446  0.86143625  0.07638294     0.19100
C1532       C  0.72430039  0.88765840  0.08151598    -0.19000
C1533       C  0.72138405  0.90667687  0.06283453    -0.11200
C1534       C  0.71318839  0.89970218  0.03844389     0.21400
C1535       C  0.70763231  0.87346686  0.03338134    -0.20600
C1536       C  0.71048304  0.85449245  0.05206038    -0.11400
C1537       C  0.71008230  0.91898986  0.01775233    -0.15600
C1538       C  0.72290591  0.94171054  0.01660170    -0.29400
C1539       C  0.72300172  0.84169529  0.09637243    -0.03700
C1540       C  0.71020843  0.81891646  0.09759716    -0.40200
H1541       H  0.73075969  0.89346835  0.10011366     0.12500
H1542       H  0.72527792  0.92674028  0.06770915     0.12200
H1543       H  0.70147085  0.86754362  0.01472427     0.11600
H1544       H  0.70679641  0.83437363  0.04719561     0.11800
H1545       H  0.69779219  0.91361315  0.00201397     0.14600
H1546       H  0.73521095  0.94771599  0.03204955     0.13400
H1547       H  0.73690291  0.84644407  0.11096664     0.11000
H1548       H  0.69504120  0.81462567  0.08417852     0.13000
C1549       C  0.62596225  0.23960158  0.30022001     0.19100
C1550       C  0.62085165  0.21731126  0.31461175    -0.19000
C1551       C  0.60022238  0.21677295  0.33139053    -0.11200
C1552       C  0.58415106  0.23863797  0.33418137     0.21400
C1553       C  0.58872466  0.26066246  0.31919715    -0.20600
C1554       C  0.60944003  0.26122825  0.30242614    -0.11400
C1555       C  0.56245566  0.23901556  0.35236520    -0.15600
C1556       C  0.56204084  0.22417851  0.37326250    -0.29400
C1557       C  0.64786517  0.23893629  0.28228110    -0.03700
C1558       C  0.65959616  0.26039343  0.27343886    -0.40200
H1559       H  0.63292843  0.20020604  0.31290235     0.12500
H1560       H  0.59678327  0.19904418  0.34183617     0.12200
H1561       H  0.57636073  0.27758335  0.32063568     0.11600
H1562       H  0.61209724  0.27842597  0.29097466     0.11800
H1563       H  0.54713086  0.25308926  0.34941419     0.14600
H1564       H  0.57832718  0.21184211  0.37779164     0.13400
H1565       H  0.65489845  0.21990718  0.27650493     0.11000
H1566       H  0.65372953  0.27953259  0.27996096     0.13000
C1567       C  0.77182968  0.36381845  0.31144084     0.19100
C1568       C  0.77192829  0.39102113  0.30899094    -0.19000
C1569       C  0.77715163  0.40696102  0.32977073    -0.11200
C1570       C  0.78189453  0.39599973  0.35364398     0.21400
C1571       C  0.78155799  0.36878924  0.35616591    -0.20600
C1572       C  0.77685836  0.35280220  0.33522607    -0.11400
C1573       C  0.78459419  0.41265571  0.37644252    -0.15600
C1574       C  0.79563070  0.43634220  0.37575186    -0.29400
C1575       C  0.76470877  0.34756764  0.28931038    -0.03700
C1576       C  0.77476894  0.32381506  0.28492757    -0.40200
H1577       H  0.76772873  0.39997592  0.29095976     0.12500
H1578       H  0.77639434  0.42787265  0.32729774     0.12200
H1579       H  0.78466330  0.35991299  0.37444011     0.11600
H1580       H  0.77623505  0.33190821  0.33785946     0.11800
H1581       H  0.77607457  0.40573559  0.39386409     0.14600
H1582       H  0.80433965  0.44285275  0.35827669     0.13400
H1583       H  0.75148723  0.35591983  0.27564529     0.11000
H1584       H  0.78960297  0.31624416  0.29733984     0.13000
C1585       C  0.57751718  0.39767241  0.15495791     0.19100
C1586       C  0.59770401  0.39872328  0.17242850    -0.19000
C1587       C  0.61598050  0.37886454  0.17354759    -0.11200
C1588       C  0.61444103  0.35726352  0.15722565     0.21400
C1589       C  0.59480903  0.35664113  0.13910463    -0.20600
C1590       C  0.57643884  0.37657382  0.13799064    -0.11400
C1591       C  0.63367507  0.33580170  0.15815451    -0.15600
C1592       C  0.64632731  0.32978047  0.17947891    -0.29400
C1593       C  0.55884980  0.41957188  0.15450523    -0.03700
C1594       C  0.53576202  0.41874377  0.14311958    -0.40200
H1595       H  0.59938594  0.41503684  0.18529991     0.12500
H1596       H  0.63152901  0.38082583  0.18694561     0.12200
H1597       H  0.59358431  0.34059366  0.12588967     0.11600
H1598       H  0.56177567  0.37549834  0.12359273     0.11800
H1599       H  0.63769551  0.32503123  0.14096030     0.14600
H1600       H  0.64164710  0.33992005  0.19684540     0.13400
H1601       H  0.56410229  0.43722432  0.16461268     0.11000
H1602       H  0.52877574  0.40079258  0.13481772     0.13000
C1603       C  0.71855434  0.12009172  0.02469825     0.19100
C1604       C  0.70112778  0.14086747  0.02738279    -0.19000
C1605       C  0.70553084  0.16079226  0.04507411    -0.11200
C1606       C  0.72771386  0.16042986  0.06031742     0.21400
C1607       C  0.74539666  0.14003127  0.05699982    -0.20600
C1608       C  0.74097575  0.12021126  0.03948272    -0.11400
C1609       C  0.73350949  0.18021473  0.08021816    -0.15600
C1610       C  0.71762031  0.19932592  0.08827986    -0.29400
C1611       C  0.71352433  0.09917748  0.00571598    -0.03700
C1612       C  0.72399152  0.07514630  0.00725019    -0.40200
H1613       H  0.68391640  0.14154759  0.01592037     0.12500
H1614       H  0.69154021  0.17626275  0.04662898     0.12200
H1615       H  0.76281166  0.13929747  0.06816768     0.11600
H1616       H  0.75546413  0.10526978  0.03737319     0.11800
H1617       H  0.75187332  0.17799313  0.08972013     0.14600
H1618       H  0.69902514  0.20222440  0.07953447     0.13400
H1619       H  0.70060589  0.10352809  0.99017037     0.11000
H1620       H  0.73492010  0.06980416  0.02389297     0.13000
C1621       C  0.89656170  0.25594272  0.03054645     0.19100
C1622       C  0.87568651  0.27299964  0.03301643    -0.19000
C1623       C  0.85751042  0.26942404  0.05197944    -0.11200
C1624       C  0.85981939  0.24869101  0.06919152     0.21400
C1625       C  0.88008890  0.23092722  0.06614184    -0.20600
C1626       C  0.89834988  0.23449397  0.04705405    -0.11400
C1627       C  0.84113447  0.24523095  0.09016963    -0.15600
C1628       C  0.82900375  0.26571138  0.10062959    -0.29400
C1629       C  0.91521650  0.26088407  0.00988376    -0.03700
C1630       C  0.93845906  0.24959664  0.00809175    -0.40200
H1631       H  0.87342747  0.28928316  0.02021804     0.12500
H1632       H  0.84151419  0.28284593  0.05287900     0.12200
H1633       H  0.88199260  0.21446036  0.07876495     0.11600
H1634       H  0.91355479  0.22027621  0.04524284     0.11800
H1635       H  0.83799884  0.22579978  0.09764519     0.14600
H1636       H  0.83362973  0.28524882  0.09429734     0.13400
H1637       H  0.90974282  0.27495048  0.99552453     0.11000
H1638       H  0.94563077  0.23735603  0.02319541     0.13000
C1639       C  0.22636733  0.39826899  0.35910446     0.19100
C1640       C  0.24285505  0.40003167  0.33814503    -0.19000
C1641       C  0.24046415  0.38270449  0.31788088    -0.11200
C1642       C  0.22174087  0.36297763  0.31820825     0.21400
C1643       C  0.20539915  0.36120258  0.33916224    -0.20600
C1644       C  0.20784012  0.37847099  0.35945496    -0.11400
C1645       C  0.21852099  0.34401203  0.29714064    -0.15600
C1646       C  0.23753935  0.33733318  0.28117455    -0.29400
C1647       C  0.22776501  0.41670983  0.38078692    -0.03700
C1648       C  0.23762115  0.44085136  0.37890636    -0.40200
H1649       H  0.25781973  0.41456362  0.33731905     0.12500
H1650       H  0.25312325  0.38509348  0.30191891     0.12200
H1651       H  0.19079416  0.34623462  0.33993681     0.11600
H1652       H  0.19495522  0.37656477  0.37535282     0.11800
H1653       H  0.20030680  0.33380217  0.29586554     0.14600
H1654       H  0.25643142  0.34591810  0.28328255     0.13400
H1655       H  0.21882195  0.41095260  0.39842290     0.11000
H1656       H  0.24471027  0.44762311  0.36087009     0.13000
C1657       C  0.34541056  0.23830608  0.31808593     0.19100
C1658       C  0.36878500  0.25155183  0.31557536    -0.19000
C1659       C  0.38839880  0.24828486  0.33326407    -0.11200
C1660       C  0.38513516  0.23145350  0.35396631     0.21400
C1661       C  0.36164668  0.21838249  0.35660455    -0.20600
C1662       C  0.34196387  0.22175240  0.33894780    -0.11400
C1663       C  0.40508933  0.22779141  0.37378000    -0.15600
C1664       C  0.42936048  0.23657755  0.37199417    -0.29400
C1665       C  0.32513103  0.24298308  0.29885603    -0.03700
C1666       C  0.30445073  0.22765492  0.29552118    -0.40200
H1667       H  0.37188154  0.26463747  0.29985835     0.12500
H1668       H  0.40573829  0.25943124  0.33066671     0.12200
H1669       H  0.35840394  0.20563325  0.37254676     0.11600
H1670       H  0.32405598  0.21171215  0.34211628     0.11800
H1671       H  0.39956895  0.21728624  0.39070441     0.14600
H1672       H  0.43614266  0.24522555  0.35463381     0.13400
H1673       H  0.32793958  0.25936837  0.28619600     0.11000
H1674       H  0.30164087  0.21050686  0.30708321     0.13000
C1675       C  0.37707641  0.39993398  0.16229737     0.19100
C1676       C  0.36523627  0.38396019  0.14425273    -0.19000
C1677       C  0.34509196  0.36742973  0.15107642    -0.11200
C1678       C  0.33671557  0.36630120  0.17625728     0.21400
C1679       C  0.34868521  0.38216690  0.19430420    -0.20600
C1680       C  0.36854575  0.39894981  0.18741744    -0.11400
C1681       C  0.31724630  0.34721357  0.18477527    -0.15600
C1682       C  0.29841545  0.33790796  0.16987971    -0.29400
C1683       C  0.39922152  0.41626030  0.15478069    -0.03700
C1684       C  0.40486269  0.43893143  0.16618334    -0.40200
H1685       H  0.37173640  0.38413685  0.12486393     0.12500
H1686       H  0.33682736  0.35489599  0.13681682     0.12200
H1687       H  0.34285339  0.38131999  0.21388307     0.11600
H1688       H  0.37775261  0.41044049  0.20194962     0.11800
H1689       H  0.31860949  0.34055448  0.20418057     0.14600
H1690       H  0.29599639  0.34537757  0.15088102     0.13400
H1691       H  0.41094566  0.40978911  0.13903117     0.11000
H1692       H  0.39189828  0.44693516  0.18021565     0.13000
C1693       C  0.14273613  0.26586927  0.06733285     0.19100
C1694       C  0.12817785  0.28749227  0.05978576    -0.19000
C1695       C  0.10953475  0.28509792  0.04082940    -0.11200
C1696       C  0.10527616  0.26092877  0.02881058     0.21400
C1697       C  0.12049052  0.23957747  0.03592161    -0.20600
C1698       C  0.13901333  0.24198176  0.05483317    -0.11400
C1699       C  0.08527678  0.25669266  0.00904522    -0.15600
C1700       C  0.06900974  0.27506645  0.00053694    -0.29400
C1701       C  0.16117626  0.26825996  0.08869364    -0.03700
C1702       C  0.16443924  0.24850838  0.10498600    -0.40200
H1703       H  0.13077566  0.30612537  0.06903251     0.12500
H1704       H  0.09856259  0.30223493  0.03601343     0.12200
H1705       H  0.11794101  0.22081395  0.02690194     0.11600
H1706       H  0.15043730  0.22506081  0.05962112     0.11800
H1707       H  0.08347317  0.23717113  0.00126633     0.14600
H1708       H  0.06908655  0.29456558  0.00829111     0.13400
H1709       H  0.17070008  0.28675915  0.09201489     0.11000
H1710       H  0.15313757  0.23092284  0.10248248     0.13000
C1711       C  0.24740029  0.12272903  0.09014321     0.19100
C1712       C  0.25912880  0.09814667  0.09031940    -0.19000
C1713       C  0.26312667  0.08455606  0.06781041    -0.11200
C1714       C  0.25613340  0.09564784  0.04456166     0.21400
C1715       C  0.24445311  0.12030622  0.04432550    -0.20600
C1716       C  0.23971066  0.13358221  0.06698350    -0.11400
C1717       C  0.26279569  0.08238775  0.02054853    -0.15600
C1718       C  0.25931513  0.05659498  0.01753435    -0.29400
C1719       C  0.24670163  0.13820252  0.11372721    -0.03700
C1720       C  0.22644717  0.15280318  0.12069146    -0.40200
H1721       H  0.26564708  0.08966647  0.10789832     0.12500
H1722       H  0.27273421  0.06584961  0.06849499     0.12200
H1723       H  0.23924017  0.12936737  0.02660351     0.11600
H1724       H  0.23123991  0.15284773  0.06632543     0.11800
H1725       H  0.27166247  0.09385667  0.00576201     0.14600
H1726       H  0.25025735  0.04589510  0.03278011     0.13400
H1727       H  0.26379987  0.13791886  0.12549143     0.11000
H1728       H  0.20863646  0.15165192  0.11006963     0.13000
C1729       C  0.07212719  0.89357651  0.23007480     0.19100
C1730       C  0.07804626  0.87207384  0.24522737    -0.19000
C1731       C  0.09843041  0.85561218  0.23908587    -0.11200
C1732       C  0.11350144  0.86041010  0.21753950     0.21400
C1733       C  0.10717169  0.88160777  0.20206007    -0.20600
C1734       C  0.08666376  0.89796578  0.20812532    -0.11400
C1735       C  0.13539552  0.84352719  0.21002281    -0.15600
C1736       C  0.14577706  0.82523306  0.22502442    -0.29400
C1737       C  0.05019173  0.91036559  0.23739496    -0.03700
C1738       C  0.04685453  0.93459053  0.22854436    -0.40200
H1739       H  0.06683768  0.86797863  0.26194455     0.12500
H1740       H  0.10182215  0.83908592  0.25120384     0.12200
H1741       H  0.11809343  0.88549862  0.18511381     0.11600
H1742       H  0.08213610  0.91366496  0.19529696     0.11800
H1743       H  0.14342723  0.84644377  0.19133726     0.14600
H1744       H  0.13873595  0.82221743  0.24398880     0.13400
H1745       H  0.03661804  0.90285325  0.25111864     0.11000
H1746       H  0.06146497  0.94358188  0.21691927     0.13000
C1747       C  0.84155859  0.85902898  0.21539789     0.19100
C1748       C  0.83849034  0.88270147  0.20255968    -0.19000
C1749       C  0.85499761  0.90353689  0.20697410    -0.11200
C1750       C  0.87527014  0.90137208  0.22424665     0.21400
C1751       C  0.87839576  0.87762070  0.23737784    -0.20600
C1752       C  0.86166187  0.85664351  0.23298534    -0.11400
C1753       C  0.89280007  0.92420858  0.22687164    -0.15600
C1754       C  0.91346426  0.92525245  0.24205441    -0.29400
C1755       C  0.82387580  0.83743288  0.20861775    -0.03700
C1756       C  0.81939990  0.81579017  0.22237326    -0.40200
H1757       H  0.82323602  0.88510486  0.18884456     0.12500
H1758       H  0.85204307  0.92141538  0.19652078     0.12200
H1759       H  0.89376969  0.87482677  0.25077850     0.11600
H1760       H  0.86491701  0.83853880  0.24291020     0.11800
H1761       H  0.88912960  0.94085554  0.21472052     0.14600
H1762       H  0.91875043  0.90866146  0.25354668     0.13400
H1763       H  0.81311013  0.84017959  0.19125154     0.11000
H1764       H  0.82905233  0.81271632  0.24026394     0.13000
C1765       C  0.88788076  0.09853010  0.21239241     0.19100
C1766       C  0.89572400  0.12243012  0.20221758    -0.19000
C1767       C  0.87812063  0.14271990  0.19898520    -0.11200
C1768       C  0.85219717  0.13913327  0.20527004     0.21400
C1769       C  0.84431374  0.11517066  0.21531501    -0.20600
C1770       C  0.86207607  0.09510196  0.21919472    -0.11400
C1771       C  0.83281021  0.15949196  0.19999289    -0.15600
C1772       C  0.83726298  0.18493887  0.20391662    -0.29400
C1773       C  0.90688702  0.07728382  0.21477934    -0.03700
C1774       C  0.90817946  0.06161753  0.23503873    -0.40200
H1775       H  0.91554118  0.12538102  0.19678318     0.12500
H1776       H  0.88459442  0.16086746  0.19080089     0.12200
H1777       H  0.82436297  0.11199163  0.22010523     0.11600
H1778       H  0.85550602  0.07669783  0.22674151     0.11800
H1779       H  0.81383957  0.15324940  0.19395692     0.14600
H1780       H  0.85520443  0.19120483  0.21242566     0.13400
H1781       H  0.92166181  0.07586689  0.20039107     0.11000
H1782       H  0.89375389  0.06310429  0.24971543     0.13000
C1783       C  0.12092103  0.12551121  0.23225230     0.19100
C1784       C  0.09463103  0.13140495  0.23286535    -0.19000
C1785       C  0.07641118  0.11164147  0.23526187    -0.11200
C1786       C  0.08415677  0.08546377  0.23663071     0.21400
C1787       C  0.11046923  0.07951179  0.23607485    -0.20600
C1788       C  0.12876458  0.09938187  0.23421279    -0.11400
C1789       C  0.06511868  0.06404696  0.23656919    -0.15600
C1790       C  0.04223748  0.06575172  0.24828260    -0.29400
C1791       C  0.13930208  0.14673009  0.22675060    -0.03700
C1792       C  0.16354944  0.14757134  0.23552405    -0.40200
H1793       H  0.08815097  0.15137298  0.23099727     0.12500
H1794       H  0.05626664  0.11681241  0.23491585     0.12200
H1795       H  0.11683390  0.05942505  0.23676261     0.11600
H1796       H  0.14888406  0.09421127  0.23315618     0.11800
H1797       H  0.07013961  0.04637169  0.22642856     0.14600
H1798       H  0.03738162  0.08343753  0.25845322     0.13400
H1799       H  0.13224973  0.16278509  0.21529708     0.11000
H1800       H  0.17036321  0.13300957  0.24878996     0.13000
loop_ 
_geom_bond_atom_site_label_1 
_geom_bond_atom_site_label_2 
_geom_bond_distance 
_geom_bond_site_symmetry_2 
_ccdc_geom_bond_type 
N1            C6   1.354   1_565  A
N1            C5   1.357       .  A
N1           H33   1.038       .  S
N2            C9   1.351       .  A
N2           C10   1.353       .  A
N3            C8   1.353   1_565  A
N3            C7   1.349       .  A
N3           H34   1.040   1_455  S
N4           C11   1.353       .  A
N4           C12   1.355       .  A
C5           C13   1.386       .  A
C5           C21   1.421       .  A
C6           C22   1.419       .  A
C6           C14   1.388       .  A
C7           C15   1.385       .  A
C7           C24   1.405       .  A
C8           C23   1.415       .  A
C8           C16   1.389       .  A
C9           C21   1.411       .  A
C9           C17   1.385       .  A
C10          C24   1.413   1_655  A
C10          C18   1.386       .  A
C11          C19   1.390       .  A
C11          C22   1.422       .  A
C12          C20   1.384       .  A
C12          C23   1.416   1_655  A
C13          C14   1.377   1_565  A
C13          H25   1.082       .  S
C14          H26   1.082       .  S
C15          C16   1.373   1_565  A
C15          H27   1.083       .  S
C16          H28   1.082       .  S
C17          C18   1.370       .  A
C17          H29   1.082       .  S
C18          H30   1.081   1_655  S
C19          C20   1.369       .  A
C19          H31   1.080       .  S
C20          H32   1.082   1_655  S
C21        C1754   1.494       .  S
C22        C1774   1.491       .  S
C23        C1790   1.496       .  S
C24        C1738   1.483       .  S
Zr35         O36   2.441       .  S
Zr35         O37   2.435       .  S
Zr35         O38   2.427       .  S
Zr35         O41   2.427       .  S
Zr35         O43   2.381       .  S
Zr35         O44   2.378       .  S
Zr35         O45   2.408       .  S
Zr35         O46   2.398       .  S
O36          H92   0.990       .  S
O36         H100   0.990       .  S
O37          C57   1.283       .  A
O38          C59   1.284       .  A
O39         Zr49   2.429       .  S
O39          C58   1.284       .  A
O40         Zr48   2.439       .  S
O40          C59   1.284       .  A
O41          C58   1.285       .  A
O42         Zr50   2.435       .  S
O42          C57   1.284       .  A
O43         Zr48   2.399       .  S
O43         Zr50   2.379       .  S
O44         Zr49   2.391       .  S
O44         Zr50   2.377       .  S
O44          H79   0.965       .  S
O45         Zr48   2.408       .  S
O45         Zr65   2.402       .  S
O45          H82   0.966       .  S
O46         Zr49   2.389       .  S
O46         Zr65   2.386       .  S
Zr47         O72   2.440       .  S
Zr47         O66   2.441       .  S
Zr47         O74   2.418       .  S
Zr47         O62   2.413       .  S
Zr47         O53   2.399       .  S
Zr47         O54   2.405       .  S
Zr47         O55   2.374       .  S
Zr47         O56   2.377       .  S
Zr48         O67   2.437       .  S
Zr48         O60   2.435       .  S
Zr48         O61   2.454       .  S
Zr48         O54   2.399       .  S
Zr48         O55   2.393       .  S
Zr49         O51   2.435       .  S
Zr49         O73   2.435       .  S
Zr49         O75   2.445       .  S
Zr49         O53   2.388       .  S
Zr49         O56   2.392       .  S
Zr50         O76   2.438       .  S
Zr50         O77   2.435       .  S
Zr50         O52   2.436       .  S
Zr50         O53   2.399       .  S
Zr50         O54   2.402       .  S
O51          H88   0.990       .  S
O52          H83   0.990       .  S
O52          H97   0.990       .  S
O54          H80   0.966       .  S
O55         Zr65   2.377       .  S
O56         Zr65   2.375       .  S
O56          H81   0.967       .  S
C57        C1646   1.482       .  S
C58        C1666   1.477       .  S
C59        C1682   1.479       .  S
O60          H96   0.990       .  S
O61          C63   1.288       .  A
O62          C63   1.279       .  A
C63        C1702   1.476       .  S
O64         Zr65   2.439       .  S
O64          H93   0.990       .  S
Zr65         O68   2.436       .  S
Zr65         O69   2.441       .  S
Zr65         O70   2.425       .  S
O66          C71   1.285       .  A
O67          H84   0.990       .  S
O67          H99   0.990       .  S
O68          H85   0.990       .  S
O69          H89   0.990       .  S
O69          H98   0.990       .  S
O70          C71   1.283       .  A
C71        C1720   1.481       .  S
O72          H91   0.990       .  S
O72          H95   0.990       .  S
O73          H87   0.990       .  S
O73          H94   0.990       .  S
O74          C78   1.284       .  A
O75          C78   1.286       .  A
O76          H86   0.990       .  S
O77          H90   0.990       .  S
C78        C1792   1.478       .  S
Zr101       O102   2.440       .  S
Zr101       O103   2.424       .  S
Zr101       O104   2.417       .  S
Zr101       O107   2.435       .  S
Zr101       O109   2.382       .  S
Zr101       O110   2.377       .  S
Zr101       O111   2.404       .  S
Zr101       O112   2.391       .  S
O102        H158   0.990       .  S
O102        H166   0.990       .  S
O103        C123   1.281       .  A
O104        C125   1.280       .  A
O105       Zr115   2.438       .  S
O105        C124   1.285       .  A
O106       Zr114   2.451       .  S
O106        C125   1.288       .  A
O107        C124   1.286       .  A
O108       Zr116   2.436       .  S
O108        C123   1.285       .  A
O109       Zr114   2.394       .  S
O109       Zr116   2.372       .  S
O110       Zr115   2.390       .  S
O110       Zr116   2.379       .  S
O110        H145   0.968       .  S
O111       Zr114   2.402       .  S
O111       Zr131   2.392       .  S
O111        H148   0.967       .  S
O112       Zr115   2.389       .  S
O112       Zr131   2.388       .  S
Zr113       O138   2.443       .  S
Zr113       O132   2.452       .  S
Zr113       O140   2.434       .  S
Zr113       O128   2.437       .  S
Zr113       O119   2.403       .  S
Zr113       O120   2.413       .  S
Zr113       O121   2.381       .  S
Zr113       O122   2.381       .  S
Zr114       O133   2.436       .  S
Zr114       O126   2.436       .  S
Zr114       O127   2.446       .  S
Zr114       O120   2.407       .  S
Zr114       O121   2.397       .  S
Zr115       O117   2.435       .  S
Zr115       O139   2.436       .  S
Zr115       O141   2.428       .  S
Zr115       O119   2.393       .  S
Zr115       O122   2.396       .  S
Zr116       O142   2.437       .  S
Zr116       O143   2.435       .  S
Zr116       O118   2.437       .  S
Zr116       O119   2.398       .  S
Zr116       O120   2.402       .  S
O117        H154   0.990       .  S
O118        H149   0.990       .  S
O118        H163   0.990       .  S
O120        H146   0.967       .  S
O121       Zr131   2.379       .  S
O122       Zr131   2.379       .  S
O122        H147   0.966       .  S
C123       C1558   1.479       .  S
C124       C1576   1.481       .  S
C125       C1592   1.474       .  S
O126        H162   0.990       .  S
O127        C129   1.286       .  A
O128        C129   1.284       .  A
C129       C1610   1.490       .  S
O130       Zr131   2.438       .  S
O130        H159   0.990       .  S
Zr131       O134   2.436       .  S
Zr131       O135   2.438       .  S
Zr131       O136   2.411       .  S
O132        C137   1.286       .  A
O133        H150   0.990       .  S
O133        H165   0.990       .  S
O134        H151   0.990       .  S
O135        H155   0.990       .  S
O135        H164   0.990       .  S
O136        C137   1.279       .  A
C137       C1628   1.477       .  S
O138        H157   0.990       .  S
O138        H161   0.991       .  S
O139        H153   0.990       .  S
O139        H160   0.990       .  S
O140        C144   1.285       .  A
O141        C144   1.282       .  A
O142        H152   0.989       .  S
O143        H156   0.990       .  S
C144       C1772   1.472       .  S
Zr167       O168   2.437       .  S
Zr167       O169   2.422       .  S
Zr167       O170   2.427       .  S
Zr167       O173   2.419       .  S
Zr167       O175   2.374       .  S
Zr167       O176   2.379       .  S
Zr167       O177   2.400       .  S
Zr167       O178   2.396       .  S
O168        H224   0.990       .  S
O168        H232   0.990       .  S
O169        C189   1.281       .  A
O170        C191   1.283       .  A
O171       Zr181   2.427       .  S
O171        C190   1.283       .  A
O172       Zr180   2.448       .  S
O172        C191   1.288       .  A
O173        C190   1.284       .  A
O174       Zr182   2.425       .  S
O174        C189   1.284       .  A
O175       Zr180   2.392       .  S
O175       Zr182   2.370       .  S
O176       Zr181   2.391       .  S
O176       Zr182   2.368       .  S
O176        H211   0.967       .  S
O177       Zr180   2.399       .  S
O177       Zr197   2.397       .  S
O177        H214   0.966       .  S
O178       Zr181   2.394       .  S
O178       Zr197   2.395       .  S
Zr179       O204   2.447       .  S
Zr179       O198   2.436       .  S
Zr179       O206   2.419       .  S
Zr179       O194   2.417       .  S
Zr179       O185   2.397       .  S
Zr179       O186   2.401       .  S
Zr179       O187   2.377       .  S
Zr179       O188   2.378       .  S
Zr180       O199   2.435       .  S
Zr180       O192   2.434       .  S
Zr180       O193   2.450       .  S
Zr180       O186   2.404       .  S
Zr180       O187   2.391       .  S
Zr181       O183   2.435       .  S
Zr181       O205   2.438       .  S
Zr181       O207   2.440       .  S
Zr181       O185   2.391       .  S
Zr181       O188   2.383       .  S
Zr182       O208   2.436       .  S
Zr182       O209   2.435       .  S
Zr182       O184   2.435       .  S
Zr182       O185   2.395       .  S
Zr182       O186   2.396       .  S
O183        H220   0.990       .  S
O184        H215   0.990       .  S
O184        H229   0.990       .  S
O186        H212   0.965       .  S
O187       Zr197   2.374       .  S
O188       Zr197   2.379       .  S
O188        H213   0.966       .  S
C189       C1484   1.476       .  S
C190       C1502   1.471       .  S
C191       C1466   1.480       .  S
O192        H228   0.990       .  S
O193        C195   1.287       .  A
O194        C195   1.283       .  A
C195       C1756   1.486       .  S
O196       Zr197   2.439       .  S
O196        H225   0.990       .  S
Zr197       O200   2.437       .  S
Zr197       O201   2.440       .  S
Zr197       O202   2.421       .  S
O198        C203   1.284       .  A
O199        H216   0.990       .  S
O199        H231   0.990       .  S
O200        H217   0.990       .  S
O201        H221   0.990       .  S
O201        H230   0.990       .  S
O202        C203   1.283       .  A
C203       C1522   1.478       .  S
O204        H223   0.990       .  S
O204        H227   0.990       .  S
O205        H219   0.990       .  S
O205        H226   0.990       .  S
O206        C210   1.283       .  A
O207        C210   1.285       .  A
O208        H218   0.990       .  S
O209        H222   0.990       .  S
C210       C1540   1.478       .  S
Zr233       O234   2.440       .  S
Zr233       O235   2.425       .  S
Zr233       O236   2.410       .  S
Zr233       O239   2.431       .  S
Zr233       O241   2.382       .  S
Zr233       O242   2.374       .  S
Zr233       O243   2.406       .  S
Zr233       O244   2.397       .  S
O234        H290   0.990       .  S
O234        H298   0.990       .  S
O235        C255   1.281       .  A
O236        C257   1.282       .  A
O237       Zr247   2.419       .  S
O237        C256   1.281       .  A
O238       Zr246   2.453       .  S
O238        C257   1.287       .  A
O239        C256   1.286       .  A
O240       Zr248   2.420       .  S
O240        C255   1.282       .  A
O241       Zr246   2.394       .  S
O241       Zr248   2.377       .  S
O242       Zr247   2.385       .  S
O242       Zr248   2.373       .  S
O242        H277   0.965       .  S
O243       Zr246   2.401       .  S
O243       Zr263   2.393       .  S
O243        H280   0.965       .  S
O244       Zr247   2.391       .  S
O244       Zr263   2.402       .  S
Zr245       O270   2.441       .  S
Zr245       O264   2.420       .  S
Zr245       O272   2.434       .  S
Zr245       O260   2.421       .  S
Zr245       O251   2.393       .  S
Zr245       O252   2.404       .  S
Zr245       O253   2.381       .  S
Zr245       O254   2.377       .  S
Zr246       O265   2.435       .  S
Zr246       O258   2.436       .  S
Zr246       O259   2.450       .  S
Zr246       O252   2.401       .  S
Zr246       O253   2.392       .  S
Zr247       O249   2.435       .  S
Zr247       O271   2.438       .  S
Zr247       O273   2.414       .  S
Zr247       O251   2.391       .  S
Zr247       O254   2.388       .  S
Zr248       O274   2.435       .  S
Zr248       O275   2.436       .  S
Zr248       O250   2.437       .  S
Zr248       O251   2.394       .  S
Zr248       O252   2.395       .  S
O249        H286   0.990       .  S
O250        H281   0.990       .  S
O250        H295   0.990       .  S
O252        H278   0.966       .  S
O253       Zr263   2.373       .  S
O254       Zr263   2.377       .  S
O254        H279   0.966       .  S
C255       C1376   1.471       .  S
C256       C1394   1.475       .  S
C257       C1414   1.483       .  S
O258        H294   0.990       .  S
O259        C261   1.288       .  A
O260        C261   1.282       .  A
C261       C1430   1.476       .  S
O262       Zr263   2.439       .  S
O262        H291   0.990       .  S
Zr263       O266   2.436       .  S
Zr263       O267   2.439       .  S
Zr263       O268   2.435       .  S
O264        C269   1.281       .  A
O265        H282   0.990       .  S
O265        H297   0.990       .  S
O266        H283   0.989       .  S
O267        H287   0.990       .  S
O267        H296   0.990       .  S
O268        C269   1.285       .  A
C269       C1450   1.476       .  S
O270        H289   0.990       .  S
O270        H293   0.990       .  S
O271        H285   0.990       .  S
O271        H292   0.990       .  S
O272        C276   1.286       .  A
O273        C276   1.281       .  A
O274        H284   0.990       .  S
O275        H288   0.990       .  S
C276       C1736   1.472       .  S
N299        C304   1.354       .  A
N299        C303   1.354       .  A
N299        H331   1.032       .  S
N300        C307   1.353   1_545  A
N300        C308   1.352       .  A
N301        C306   1.357       .  A
N301        C305   1.354       .  A
N301        H332   1.040       .  S
N302        C309   1.354       .  A
N302        C310   1.352   1_566  A
C303        C311   1.389       .  A
C303        C319   1.424       .  A
C304        C320   1.421       .  A
C304        C312   1.387       .  A
C305        C313   1.385       .  A
C305        C322   1.416       .  A
C306        C321   1.422       .  A
C306        C314   1.388       .  A
C307        C319   1.416       .  A
C307        C315   1.386       .  A
C308        C322   1.418       .  A
C308        C316   1.387       .  A
C309        C317   1.386   1_556  A
C309        C320   1.417       .  A
C310        C318   1.388       .  A
C310        C321   1.418   1_554  A
C311        C312   1.373       .  A
C311        H323   1.082       .  S
C312        H324   1.082       .  S
C313        C314   1.377       .  A
C313        H325   1.083       .  S
C314        H326   1.081       .  S
C315        C316   1.372   1_565  A
C315        H327   1.081       .  S
C316        H328   1.082       .  S
C317        C318   1.371   1_565  A
C317        H329   1.082       .  S
C318        H330   1.082       .  S
C319       C1358   1.493       .  S
C320       C1432   1.492   1_556  S
C321       C1718   1.498   1_556  S
C322       C1342   1.492       .  S
N333        C338   1.353   1_455  A
N333        C337   1.355       .  A
N333        H365   1.039       .  S
N334        C341   1.352       .  A
N334        C342   1.351       .  A
N335        C340   1.355       .  A
N335        C339   1.352   1_655  A
N335        H366   1.039       .  S
N336        C343   1.353       .  A
N336        C344   1.352       .  A
C337        C345   1.388   1_556  A
C337        C353   1.416       .  A
C338        C354   1.414       .  A
C338        C346   1.386   1_556  A
C339        C347   1.385       .  A
C339        C356   1.412       .  A
C340        C355   1.419       .  A
C340        C348   1.389       .  A
C341        C353   1.414       .  A
C341        C349   1.386       .  A
C342        C356   1.415       .  A
C342        C350   1.387       .  A
C343        C351   1.388       .  A
C343        C354   1.418       .  A
C344        C352   1.385       .  A
C344        C355   1.413       .  A
C345        C346   1.376   1_455  A
C345        H357   1.082       .  S
C346        H358   1.082       .  S
C347        C348   1.375   1_455  A
C347        H359   1.083       .  S
C348        H360   1.081       .  S
C349        C350   1.373       .  A
C349        H361   1.081       .  S
C350        H362   1.082       .  S
C351        C352   1.372       .  A
C351        H363   1.081       .  S
C352        H364   1.082       .  S
C353       C1700   1.488   1_556  S
C354       C1630   1.492   1_556  S
C355       C1304   1.493       .  S
C356       C1322   1.484       .  S
N367        C372   1.355   1_545  A
N367        C371   1.355       .  A
N367        H399   1.038       .  S
N368        C375   1.355       .  A
N368        C376   1.354       .  A
N369        C374   1.356   1_545  A
N369        C373   1.354       .  A
N369        H400   1.040       .  S
N370        C377   1.353       .  A
N370        C378   1.353       .  A
C371        C379   1.387   1_556  A
C371        C387   1.418       .  A
C372        C388   1.417       .  A
C372        C380   1.387   1_556  A
C373        C381   1.386       .  A
C373        C390   1.414       .  A
C374        C389   1.419       .  A
C374        C382   1.387       .  A
C375        C387   1.418       .  A
C375        C383   1.386       .  A
C376        C390   1.417       .  A
C376        C384   1.386       .  A
C377        C385   1.388       .  A
C377        C388   1.418       .  A
C378        C386   1.385       .  A
C378        C389   1.412       .  A
C379        C380   1.376   1_545  A
C379        H391   1.082       .  S
C380        H392   1.082       .  S
C381        C382   1.376   1_545  A
C381        H393   1.082       .  S
C382        H394   1.082       .  S
C383        C384   1.372       .  A
C383        H395   1.082       .  S
C384        H396   1.082       .  S
C385        C386   1.372       .  A
C385        H397   1.082       .  S
C386        H398   1.082       .  S
C387       C1612   1.497   1_556  S
C388       C1538   1.494   1_556  S
C389       C1270   1.496       .  S
C390       C1286   1.495       .  S
N401        C406   1.354       .  A
N401        C405   1.353       .  A
N401        H433   1.040       .  S
N402        C409   1.350   1_655  A
N402        C410   1.352       .  A
N403        C408   1.353       .  A
N403        C407   1.353       .  A
N403        H434   1.041       .  S
N404        C411   1.351   1_655  A
N404        C412   1.350       .  A
C405        C413   1.388       .  A
C405        C421   1.416       .  A
C406        C422   1.412       .  A
C406        C414   1.387       .  A
C407        C415   1.386       .  A
C407        C424   1.410       .  A
C408        C423   1.414       .  A
C408        C416   1.387       .  A
C409        C421   1.410       .  A
C409        C417   1.386   1_455  A
C410        C424   1.413       .  A
C410        C418   1.386       .  A
C411        C419   1.388   1_556  A
C411        C422   1.413       .  A
C412        C420   1.386   1_556  A
C412        C423   1.409       .  A
C413        C414   1.375       .  A
C413        H425   1.082       .  S
C414        H426   1.082       .  S
C415        C416   1.372       .  A
C415        H427   1.083       .  S
C416        H428   1.082       .  S
C417        C418   1.372       .  A
C417        H429   1.082   1_655  S
C418        H430   1.082       .  S
C419        C420   1.370   1_455  A
C419        H431   1.081       .  S
C420        H432   1.082       .  S
C421       C1232   1.485       .  S
C422       C1448   1.484       .  S
C423       C1520   1.485   1_556  S
C424       C1250   1.488       .  S
Zr435       O436   2.442       .  S
Zr435       O437   2.430       .  S
Zr435       O438   2.409       .  S
Zr435       O441   2.416       .  S
Zr435       O443   2.381       .  S
Zr435       O444   2.380       .  S
Zr435       O445   2.404       .  S
Zr435       O446   2.394       .  S
O436        H492   0.991       .  S
O436        H500   0.990       .  S
O437        C457   1.282       .  A
O438        C459   1.278       .  A
O439       Zr449   2.437       .  S
O439        C458   1.284       .  A
O440       Zr448   2.448       .  S
O440        C459   1.287       .  A
O441        C458   1.282       .  A
O442       Zr450   2.427       .  S
O442        C457   1.284       .  A
O443       Zr448   2.397       .  S
O443       Zr450   2.375       .  S
O444       Zr449   2.384       .  S
O444       Zr450   2.380       .  S
O444        H479   0.966       .  S
O445       Zr448   2.403       .  S
O445       Zr465   2.397       .  S
O445        H482   0.967       .  S
O446       Zr449   2.394       .  S
O446       Zr465   2.393       .  S
Zr447       O472   2.444       .  S
Zr447       O466   2.432       .  S
Zr447       O474   2.431       .  S
Zr447       O462   2.423       .  S
Zr447       O453   2.401       .  S
Zr447       O454   2.402       .  S
Zr447       O455   2.379       .  S
Zr447       O456   2.377       .  S
Zr448       O467   2.436       .  S
Zr448       O460   2.435       .  S
Zr448       O461   2.454       .  S
Zr448       O454   2.398       .  S
Zr448       O455   2.392       .  S
Zr449       O451   2.434       .  S
Zr449       O473   2.437       .  S
Zr449       O475   2.428       .  S
Zr449       O453   2.394       .  S
Zr449       O456   2.392       .  S
Zr450       O476   2.436       .  S
Zr450       O477   2.434       .  S
Zr450       O452   2.437       .  S
Zr450       O453   2.401       .  S
Zr450       O454   2.391       .  S
O451        H488   0.990       .  S
O452        H483   0.990       .  S
O452        H497   0.990       .  S
O454        H480   0.966       .  S
O455       Zr465   2.376       .  S
O456       Zr465   2.372       .  S
O456        H481   0.966       .  S
C457       C1234   1.479       .  S
C458       C1360   1.474       .  S
C459       C1216   1.470       .  S
O460        H496   0.990       .  S
O461        C463   1.288       .  A
O462        C463   1.284       .  A
C463       C1162   1.488       .  S
O464       Zr465   2.438       .  S
O464        H493   0.990       .  S
Zr465       O468   2.436       .  S
Zr465       O469   2.439       .  S
Zr465       O470   2.426       .  S
O466        C471   1.283       .  A
O467        H484   0.990       .  S
O467        H499   0.990       .  S
O468        H485   0.990       .  S
O469        H489   0.990       .  S
O469        H498   0.990       .  S
O470        C471   1.284       .  A
C471       C1178   1.479       .  S
O472        H491   0.990       .  S
O472        H495   0.990       .  S
O473        H487   0.990       .  S
O473        H494   0.990       .  S
O474        C478   1.285       .  A
O475        C478   1.283       .  A
O476        H486   0.990       .  S
O477        H490   0.990       .  S
C478       C1196   1.475       .  S
N501        C506   1.352   1_655  A
N501        C505   1.354       .  A
N501        H533   1.042       .  S
N502        C509   1.351   1_545  A
N502        C510   1.353       .  A
N503        C508   1.353   1_655  A
N503        C507   1.353       .  A
N503        H534   1.041       .  S
N504        C511   1.351       .  A
N504        C512   1.350   1_565  A
C505        C513   1.388       .  A
C505        C521   1.416       .  A
C506        C522   1.410       .  A
C506        C514   1.385   1_455  A
C507        C515   1.386       .  A
C507        C524   1.414       .  A
C508        C523   1.415       .  A
C508        C516   1.389       .  A
C509        C521   1.411       .  A
C509        C517   1.386       .  A
C510        C524   1.414       .  A
C510        C518   1.387       .  A
C511        C519   1.385       .  A
C511        C522   1.413       .  A
C512        C520   1.388       .  A
C512        C523   1.413       .  A
C513        C514   1.374       .  A
C513        H525   1.082       .  S
C514        H526   1.083   1_655  S
C515        C516   1.376   1_655  A
C515        H527   1.082       .  S
C516        H528   1.082       .  S
C517        C518   1.373   1_565  A
C517        H529   1.082       .  S
C518        H530   1.082       .  S
C519        C520   1.372   1_565  A
C519        H531   1.082       .  S
C520        H532   1.080       .  S
C521       C1106   1.490       .  S
C522       C1214   1.489       .  S
C523       C1144   1.482       .  S
C524       C1124   1.494       .  S
Zr535       O536   2.441       .  S
Zr535       O537   2.439       .  S
Zr535       O538   2.433       .  S
Zr535       O541   2.425       .  S
Zr535       O543   2.378       .  S
Zr535       O544   2.383       .  S
Zr535       O545   2.406       .  S
Zr535       O546   2.401       .  S
O536        H592   0.990       .  S
O536        H600   0.990       .  S
O537        C557   1.285       .  A
O538        C559   1.284       .  A
O539       Zr549   2.420       .  S
O539        C558   1.281       .  A
O540       Zr548   2.443       .  S
O540        C559   1.285       .  A
O541        C558   1.284       .  A
O542       Zr550   2.406       .  S
O542        C557   1.278       .  A
O543       Zr548   2.397       .  S
O543       Zr550   2.379       .  S
O544       Zr549   2.392       .  S
O544       Zr550   2.379       .  S
O544        H579   0.967       .  S
O545       Zr548   2.398       .  S
O545       Zr565   2.398       .  S
O545        H582   0.964       .  S
O546       Zr549   2.389       .  S
O546       Zr565   2.398       .  S
Zr547       O572   2.442       .  S
Zr547       O566   2.431       .  S
Zr547       O574   2.427       .  S
Zr547       O562   2.421       .  S
Zr547       O553   2.392       .  S
Zr547       O554   2.404       .  S
Zr547       O555   2.380       .  S
Zr547       O556   2.379       .  S
Zr548       O567   2.436       .  S
Zr548       O560   2.436       .  S
Zr548       O561   2.434       .  S
Zr548       O554   2.405       .  S
Zr548       O555   2.398       .  S
Zr549       O551   2.435       .  S
Zr549       O573   2.438       .  S
Zr549       O575   2.427       .  S
Zr549       O553   2.385       .  S
Zr549       O556   2.386       .  S
Zr550       O576   2.435       .  S
Zr550       O577   2.435       .  S
Zr550       O552   2.436       .  S
Zr550       O553   2.385       .  S
Zr550       O554   2.385       .  S
O551        H588   0.990       .  S
O552        H583   0.990       .  S
O552        H597   0.990       .  S
O554        H580   0.965       .  S
O555       Zr565   2.377       .  S
O556       Zr565   2.382       .  S
O556        H581   0.966       .  S
C557       C1072   1.471       .  S
C558       C1088   1.472       .  S
C559       C1054   1.485       .  S
O560        H596   0.990       .  S
O561        C563   1.284       .  A
O562        C563   1.282       .  A
C563       C1142   1.474       .  S
O564       Zr565   2.439       .  S
O564        H593   0.990       .  S
Zr565       O568   2.437       .  S
Zr565       O569   2.438       .  S
Zr565       O570   2.429       .  S
O566        C571   1.283       .  A
O567        H584   0.990       .  S
O567        H599   0.990       .  S
O568        H585   0.990       .  S
O569        H589   0.990       .  S
O569        H598   0.990       .  S
O570        C571   1.283       .  A
C571       C1340   1.477       .  S
O572        H591   0.991       .  S
O572        H595   0.990       .  S
O573        H587   0.990       .  S
O573        H594   0.990       .  S
O574        C578   1.284       .  A
O575        C578   1.282       .  A
O576        H586   0.990       .  S
O577        H590   0.990       .  S
C578       C1324   1.476       .  S
Zr601       O602   2.440       .  S
Zr601       O603   2.435       .  S
Zr601       O604   2.419       .  S
Zr601       O607   2.418       .  S
Zr601       O609   2.375       .  S
Zr601       O610   2.376       .  S
Zr601       O611   2.404       .  S
Zr601       O612   2.402       .  S
O602        H658   0.990       .  S
O602        H666   0.990       .  S
O603        C623   1.284       .  A
O604        C625   1.281       .  A
O605       Zr615   2.460       .  S
O605        C624   1.290       .  A
O606       Zr614   2.449       .  S
O606        C625   1.287       .  A
O607        C624   1.283       .  A
O608       Zr616   2.419       .  S
O608        C623   1.282       .  A
O609       Zr614   2.391       .  S
O609       Zr616   2.372       .  S
O610       Zr615   2.391       .  S
O610       Zr616   2.376       .  S
O610        H645   0.965       .  S
O611       Zr614   2.400       .  S
O611       Zr631   2.402       .  S
O611        H648   0.965       .  S
O612       Zr615   2.395       .  S
O612       Zr631   2.400       .  S
Zr613       O638   2.444       .  S
Zr613       O632   2.425       .  S
Zr613       O640   2.435       .  S
Zr613       O628   2.428       .  S
Zr613       O619   2.395       .  S
Zr613       O620   2.401       .  S
Zr613       O621   2.379       .  S
Zr613       O622   2.382       .  S
Zr614       O633   2.436       .  S
Zr614       O626   2.435       .  S
Zr614       O627   2.450       .  S
Zr614       O620   2.402       .  S
Zr614       O621   2.389       .  S
Zr615       O617   2.436       .  S
Zr615       O639   2.437       .  S
Zr615       O641   2.443       .  S
Zr615       O619   2.397       .  S
Zr615       O622   2.392       .  S
Zr616       O642   2.436       .  S
Zr616       O643   2.434       .  S
Zr616       O618   2.438       .  S
Zr616       O619   2.391       .  S
Zr616       O620   2.394       .  S
O617        H654   0.990       .  S
O618        H649   0.990       .  S
O618        H663   0.990       .  S
O620        H646   0.966       .  S
O621       Zr631   2.373       .  S
O622       Zr631   2.376       .  S
O622        H647   0.966       .  S
C623       C1016   1.479       .  S
C624       C1034   1.479       .  S
C625        C998   1.475       .  S
O626        H662   0.990       .  S
O627        C629   1.288       .  A
O628        C629   1.285       .  A
C629       C1126   1.488       .  S
O630       Zr631   2.438       .  S
O630        H659   0.991       .  S
Zr631       O634   2.436       .  S
Zr631       O635   2.439       .  S
Zr631       O636   2.430       .  S
O632        C637   1.283       .  A
O633        H650   0.990       .  S
O633        H665   0.990       .  S
O634        H651   0.990       .  S
O635        H655   0.990       .  S
O635        H664   0.990       .  S
O636        C637   1.284       .  A
C637       C1306   1.477       .  S
O638        H657   0.990       .  S
O638        H661   0.990       .  S
O639        H653   0.990       .  S
O639        H660   0.990       .  S
O640        C644   1.286       .  A
O641        C644   1.287       .  A
O642        H652   0.990       .  S
O643        H656   0.990       .  S
C644       C1288   1.484       .  S
Zr667       O668   2.440       .  S
Zr667       O669   2.430       .  S
Zr667       O670   2.429       .  S
Zr667       O673   2.442       .  S
Zr667       O675   2.385       .  S
Zr667       O676   2.381       .  S
Zr667       O677   2.408       .  S
Zr667       O678   2.398       .  S
O668        H724   0.990       .  S
O668        H732   0.990       .  S
O669        C689   1.282       .  A
O670        C691   1.285       .  A
O671       Zr681   2.429       .  S
O671        C690   1.284       .  A
O672       Zr680   2.431       .  S
O672        C691   1.283       .  A
O673        C690   1.287       .  A
O674       Zr682   2.425       .  S
O674        C689   1.283       .  A
O675       Zr680   2.401       .  S
O675       Zr682   2.374       .  S
O676       Zr681   2.392       .  S
O676       Zr682   2.376       .  S
O676        H711   0.966       .  S
O677       Zr680   2.405       .  S
O677       Zr697   2.389       .  S
O677        H714   0.966       .  S
O678       Zr681   2.393       .  S
O678       Zr697   2.397       .  S
Zr679       O704   2.444       .  S
Zr679       O698   2.432       .  S
Zr679       O706   2.414       .  S
Zr679       O694   2.419       .  S
Zr679       O685   2.398       .  S
Zr679       O686   2.400       .  S
Zr679       O687   2.372       .  S
Zr679       O688   2.379       .  S
Zr680       O699   2.437       .  S
Zr680       O692   2.435       .  S
Zr680       O693   2.453       .  S
Zr680       O686   2.396       .  S
Zr680       O687   2.383       .  S
Zr681       O683   2.435       .  S
Zr681       O705   2.437       .  S
Zr681       O707   2.439       .  S
Zr681       O685   2.390       .  S
Zr681       O688   2.385       .  S
Zr682       O708   2.436       .  S
Zr682       O709   2.436       .  S
Zr682       O684   2.437       .  S
Zr682       O685   2.395       .  S
Zr682       O686   2.401       .  S
O683        H720   0.990       .  S
O684        H715   0.990       .  S
O684        H729   0.990       .  S
O686        H712   0.965       .  S
O687       Zr697   2.370       .  S
O688       Zr697   2.379       .  S
O688        H713   0.965       .  S
C689        C944   1.480       .  S
C690        C964   1.480       .  S
C691        C980   1.475       .  S
O692        H728   0.990       .  S
O693        C695   1.288       .  A
O694        C695   1.283       .  A
C695       C1268   1.487       .  S
O696       Zr697   2.438       .  S
O696        H725   0.990       .  S
Zr697       O700   2.438       .  S
Zr697       O701   2.438       .  S
Zr697       O702   2.425       .  S
O698        C703   1.283       .  A
O699        H716   0.990       .  S
O699        H731   0.990       .  S
O700        H717   0.990       .  S
O701        H721   0.990       .  S
O701        H730   0.990       .  S
O702        C703   1.284       .  A
C703       C1252   1.473       .  S
O704        H723   0.990       .  S
O704        H727   0.990       .  S
O705        H719   0.990       .  S
O705        H726   0.990       .  S
O706        C710   1.283       .  A
O707        C710   1.284       .  A
O708        H718   0.990       .  S
O709        H722   0.990       .  S
C710       C1108   1.479       .  S
N733        C738   1.352       .  A
N733        C737   1.351       .  A
N733        H765   1.041       .  S
N734        C741   1.353       .  A
N734        C742   1.352       .  A
N735        C740   1.353       .  A
N735        C739   1.352       .  A
N735        H766   1.042       .  S
N736        C743   1.351       .  A
N736        C744   1.348       .  A
C737        C745   1.388       .  A
C737        C753   1.415       .  A
C738        C754   1.409       .  A
C738        C746   1.385       .  A
C739        C747   1.386       .  A
C739        C756   1.414       .  A
C740        C755   1.416       .  A
C740        C748   1.388       .  A
C741        C753   1.413       .  A
C741        C749   1.385       .  A
C742        C756   1.415       .  A
C742        C750   1.388       .  A
C743        C751   1.387       .  A
C743        C754   1.411       .  A
C744        C752   1.386       .  A
C744        C755   1.407       .  A
C745        C746   1.375       .  A
C745        H757   1.082       .  S
C746        H758   1.082       .  S
C747        C748   1.378       .  A
C747        H759   1.082       .  S
C748        H760   1.082       .  S
C749        C750   1.374       .  A
C749        H761   1.082       .  S
C750        H762   1.082       .  S
C751        C752   1.372       .  A
C751        H763   1.082       .  S
C752        H764   1.082       .  S
C753       C1036   1.494       .  S
C754       C1090   1.488       .  S
C755       C1198   1.487       .  S
C756        C982   1.492       .  S
N767        C772   1.352       .  A
N767        C771   1.353       .  A
N767        H799   1.038       .  S
N768        C775   1.349       .  A
N768        C776   1.350       .  A
N769        C774   1.351       .  A
N769        C773   1.350       .  A
N769        H800   1.040       .  S
N770        C777   1.352       .  A
N770        C778   1.352       .  A
C771        C779   1.388       .  A
C771        C787   1.417       .  A
C772        C788   1.412       .  A
C772        C780   1.386       .  A
C773        C781   1.385       .  A
C773        C790   1.406       .  A
C774        C789   1.415       .  A
C774        C782   1.389       .  A
C775        C787   1.407       .  A
C775        C783   1.386       .  A
C776        C790   1.410       .  A
C776        C784   1.387       .  A
C777        C785   1.387       .  A
C777        C788   1.415       .  A
C778        C786   1.385       .  A
C778        C789   1.411       .  A
C779        C780   1.375       .  A
C779        H791   1.082       .  S
C780        H792   1.082       .  S
C781        C782   1.375       .  A
C781        H793   1.083       .  S
C782        H794   1.082       .  S
C783        C784   1.372       .  A
C783        H795   1.082       .  S
C784        H796   1.082       .  S
C785        C786   1.373       .  A
C785        H797   1.082       .  S
C786        H798   1.082       .  S
C787       C1412   1.484       .  S
C788       C1684   1.487       .  S
C789       C1594   1.490       .  S
C790       C1504   1.480       .  S
N801        C806   1.354       .  A
N801        C805   1.354       .  A
N801        H833   1.040       .  S
N802        C809   1.350       .  A
N802        C810   1.353       .  A
N803        C808   1.354       .  A
N803        C807   1.357       .  A
N803        H834   1.040       .  S
N804        C811   1.354       .  A
N804        C812   1.352       .  A
C805        C813   1.388       .  A
C805        C821   1.417       .  A
C806        C822   1.415       .  A
C806        C814   1.387       .  A
C807        C815   1.385       .  A
C807        C824   1.416       .  A
C808        C823   1.420       .  A
C808        C816   1.390       .  A
C809        C821   1.411       .  A
C809        C817   1.386       .  A
C810        C824   1.414       .  A
C810        C818   1.386       .  A
C811        C819   1.386       .  A
C811        C822   1.417       .  A
C812        C820   1.386       .  A
C812        C823   1.417       .  A
C813        C814   1.377       .  A
C813        H825   1.082       .  S
C814        H826   1.082       .  S
C815        C816   1.375       .  A
C815        H827   1.082       .  S
C816        H828   1.082       .  S
C817        C818   1.373       .  A
C817        H829   1.082       .  S
C818        H830   1.082       .  S
C819        C820   1.376       .  A
C819        H831   1.082       .  S
C820        H832   1.082       .  S
C821        C962   1.487       .  S
C822       C1000   1.498       .  S
C823       C1574   1.495       .  S
C824       C1468   1.498       .  S
N835        C840   1.354       .  A
N835        C839   1.353       .  A
N835        H867   1.040       .  S
N836        C843   1.353       .  A
N836        C844   1.353       .  A
N837        C842   1.354       .  A
N837        C841   1.351       .  A
N837        H868   1.040       .  S
N838        C845   1.349       .  A
N838        C846   1.351       .  A
C839        C847   1.387       .  A
C839        C855   1.413       .  A
C840        C856   1.416       .  A
C840        C848   1.387       .  A
C841        C849   1.387       .  A
C841        C858   1.411       .  A
C842        C857   1.414       .  A
C842        C850   1.388       .  A
C843        C855   1.415       .  A
C843        C851   1.386       .  A
C844        C858   1.415       .  A
C844        C852   1.386       .  A
C845        C853   1.385       .  A
C845        C856   1.406       .  A
C846        C854   1.387       .  A
C846        C857   1.412       .  A
C847        C848   1.376       .  A
C847        H859   1.082       .  S
C848        H860   1.082       .  S
C849        C850   1.375       .  A
C849        H861   1.082       .  S
C850        H862   1.082       .  S
C851        C852   1.373       .  A
C851        H863   1.082       .  S
C852        H864   1.082       .  S
C853        C854   1.370       .  A
C853        H865   1.083       .  S
C854        H866   1.082       .  S
C855        C946   1.489       .  S
C856       C1486   1.484       .  S
C857       C1378   1.491       .  S
C858       C1180   1.486       .  S
N869        C874   1.354       .  A
N869        C873   1.352       .  A
N869        H901   1.042       .  S
N870        C877   1.352       .  A
N870        C878   1.354       .  A
N871        C876   1.354       .  A
N871        C875   1.354       .  A
N871        H902   1.041       .  S
N872        C879   1.352       .  A
N872        C880   1.350       .  A
C873        C881   1.389       .  A
C873        C889   1.416       .  A
C874        C890   1.414       .  A
C874        C882   1.385       .  A
C875        C883   1.386       .  A
C875        C892   1.416       .  A
C876        C891   1.416       .  A
C876        C884   1.387       .  A
C877        C889   1.413       .  A
C877        C885   1.387       .  A
C878        C892   1.414       .  A
C878        C886   1.386       .  A
C879        C887   1.387       .  A
C879        C890   1.412       .  A
C880        C888   1.386       .  A
C880        C891   1.409       .  A
C881        C882   1.376       .  A
C881        H893   1.082       .  S
C882        H894   1.082       .  S
C883        C884   1.374       .  A
C883        H895   1.082       .  S
C884        H896   1.082       .  S
C885        C886   1.372       .  A
C885        H897   1.082       .  S
C886        H898   1.082       .  S
C887        C888   1.371       .  A
C887        H899   1.082       .  S
C888        H900   1.082       .  S
C889       C1070   1.489       .  S
C890       C1648   1.493       .  S
C891       C1396   1.486       .  S
C892       C1160   1.495       .  S
N903        C908   1.353       .  A
N903        C907   1.353       .  A
N903        H935   1.040       .  S
N904        C911   1.353       .  A
N904        C912   1.352       .  A
N905        C910   1.354       .  A
N905        C909   1.352       .  A
N905        H936   1.040       .  S
N906        C913   1.351       .  A
N906        C914   1.351       .  A
C907        C915   1.387       .  A
C907        C923   1.413       .  A
C908        C924   1.415       .  A
C908        C916   1.387       .  A
C909        C917   1.387       .  A
C909        C926   1.414       .  A
C910        C925   1.415       .  A
C910        C918   1.387       .  A
C911        C923   1.414       .  A
C911        C919   1.385       .  A
C912        C926   1.415       .  A
C912        C920   1.387       .  A
C913        C921   1.386       .  A
C913        C924   1.411       .  A
C914        C922   1.386       .  A
C914        C925   1.411       .  A
C915        C916   1.376       .  A
C915        H927   1.082       .  S
C916        H928   1.082       .  S
C917        C918   1.376       .  A
C917        H929   1.082       .  S
C918        H930   1.082       .  S
C919        C920   1.372       .  A
C919        H931   1.082       .  S
C920        H932   1.082       .  S
C921        C922   1.371       .  A
C921        H933   1.082       .  S
C922        H934   1.082       .  S
C923       C1052   1.492       .  S
C924       C1018   1.487       .  S
C925       C1556   1.488       .  S
C926       C1664   1.491       .  S
C937        C938   1.402       .  A
C937        C942   1.409       .  A
C937        C945   1.486       .  S
C938        C939   1.396       .  A
C938        H947   1.083       .  S
C939        C940   1.402       .  A
C939        H948   1.083       .  S
C940        C941   1.408       .  A
C940        C943   1.485       .  S
C941        C942   1.402       .  A
C941        H949   1.082       .  S
C942        H950   1.081       .  S
C943        H951   1.087       .  S
C943        C944   1.347       .  D
C944        H952   1.085       .  S
C945        H953   1.088       .  S
C945        C946   1.345       .  D
C946        H954   1.085       .  S
C955        C956   1.403       .  A
C955        C960   1.409       .  A
C955        C963   1.489       .  S
C956        C957   1.398       .  A
C956        H965   1.083       .  S
C957        C958   1.407       .  A
C957        H966   1.082       .  S
C958        C959   1.404       .  A
C958        C961   1.488       .  S
C959        C960   1.401       .  A
C959        H967   1.083       .  S
C960        H968   1.082       .  S
C961        H969   1.087       .  S
C961        C962   1.345       .  D
C962        H970   1.085       .  S
C963        H971   1.087       .  S
C963        C964   1.346       .  D
C964        H972   1.086       .  S
C973        C974   1.403       .  A
C973        C978   1.407       .  A
C973        C981   1.483       .  S
C974        C975   1.400       .  A
C974        H983   1.083       .  S
C975        C976   1.406       .  A
C975        H984   1.083       .  S
C976        C977   1.401       .  A
C976        C979   1.479       .  S
C977        C978   1.396       .  A
C977        H985   1.084       .  S
C978        H986   1.082       .  S
C979        H987   1.087       .  S
C979        C980   1.344       .  D
C980        H988   1.086       .  S
C981        H989   1.086       .  S
C981        C982   1.346       .  D
C982        H990   1.085       .  S
C991        C992   1.404       .  A
C991        C996   1.410       .  A
C991        C999   1.491       .  S
C992        C993   1.398       .  A
C992       H1001   1.083       .  S
C993        C994   1.406       .  A
C993       H1002   1.083       .  S
C994        C995   1.403       .  A
C994        C997   1.487       .  S
C995        C996   1.403       .  A
C995       H1003   1.083       .  S
C996       H1004   1.082       .  S
C997       H1005   1.087       .  S
C997        C998   1.344       .  D
C998       H1006   1.087       .  S
C999       H1007   1.087       .  S
C999       C1000   1.347       .  D
C1000      H1008   1.085       .  S
C1009      C1010   1.404       .  A
C1009      C1014   1.407       .  A
C1009      C1017   1.486       .  S
C1010      C1011   1.400       .  A
C1010      H1019   1.083       .  S
C1011      C1012   1.407       .  A
C1011      H1020   1.081       .  S
C1012      C1013   1.403       .  A
C1012      C1015   1.485       .  S
C1013      C1014   1.395       .  A
C1013      H1021   1.084       .  S
C1014      H1022   1.081       .  S
C1015      H1023   1.087       .  S
C1015      C1016   1.348       .  D
C1016      H1024   1.084       .  S
C1017      H1025   1.087       .  S
C1017      C1018   1.345       .  D
C1018      H1026   1.085       .  S
C1027      C1028   1.402       .  A
C1027      C1032   1.409       .  A
C1027      C1035   1.486       .  S
C1028      C1029   1.395       .  A
C1028      H1037   1.084       .  S
C1029      C1030   1.406       .  A
C1029      H1038   1.083       .  S
C1030      C1031   1.405       .  A
C1030      C1033   1.490       .  S
C1031      C1032   1.404       .  A
C1031      H1039   1.083       .  S
C1032      H1040   1.082       .  S
C1033      H1041   1.086       .  S
C1033      C1034   1.346       .  D
C1034      H1042   1.087       .  S
C1035      H1043   1.088       .  S
C1035      C1036   1.348       .  D
C1036      H1044   1.085       .  S
C1045      C1046   1.404       .  A
C1045      C1050   1.409       .  A
C1045      C1053   1.492       .  S
C1046      C1047   1.397       .  A
C1046      H1055   1.084       .  S
C1047      C1048   1.408       .  A
C1047      H1056   1.080       .  S
C1048      C1049   1.405       .  A
C1048      C1051   1.492       .  S
C1049      C1050   1.402       .  A
C1049      H1057   1.083       .  S
C1050      H1058   1.080       .  S
C1051      H1059   1.087       .  S
C1051      C1052   1.348       .  D
C1052      H1060   1.084       .  S
C1053      H1061   1.087       .  S
C1053      C1054   1.351       .  D
C1054      H1062   1.083       .  S
C1063      C1064   1.402       .  A
C1063      C1068   1.407       .  A
C1063      C1071   1.482       .  S
C1064      C1065   1.399       .  A
C1064      H1073   1.083       .  S
C1065      C1066   1.409       .  A
C1065      H1074   1.081       .  S
C1066      C1067   1.401       .  A
C1066      C1069   1.482       .  S
C1067      C1068   1.394       .  A
C1067      H1075   1.084       .  S
C1068      H1076   1.082       .  S
C1069      H1077   1.087       .  S
C1069      C1070   1.344       .  D
C1070      H1078   1.085       .  S
C1071      H1079   1.087       .  S
C1071      C1072   1.343       .  D
C1072      H1080   1.086       .  S
C1081      C1082   1.402       .  A
C1081      C1086   1.409       .  A
C1081      C1089   1.486       .  S
C1082      C1083   1.396       .  A
C1082      H1091   1.083       .  S
C1083      C1084   1.408       .  A
C1083      H1092   1.081       .  S
C1084      C1085   1.402       .  A
C1084      C1087   1.484       .  S
C1085      C1086   1.397       .  A
C1085      H1093   1.084       .  S
C1086      H1094   1.080       .  S
C1087      H1095   1.087       .  S
C1087      C1088   1.345       .  D
C1088      H1096   1.084       .  S
C1089      H1097   1.087       .  S
C1089      C1090   1.345       .  D
C1090      H1098   1.083       .  S
C1099      C1100   1.403       .  A
C1099      C1104   1.408       .  A
C1099      C1107   1.485       .  S
C1100      C1101   1.394       .  A
C1100      H1109   1.084       .  S
C1101      C1102   1.407       .  A
C1101      H1110   1.081       .  S
C1102      C1103   1.404       .  A
C1102      C1105   1.487       .  S
C1103      C1104   1.401       .  A
C1103      H1111   1.083       .  S
C1104      H1112   1.081       .  S
C1105      H1113   1.087       .  S
C1105      C1106   1.346       .  D
C1106      H1114   1.085       .  S
C1107      H1115   1.087       .  S
C1107      C1108   1.348       .  D
C1108      H1116   1.084       .  S
C1117      C1118   1.405       .  A
C1117      C1122   1.409       .  A
C1117      C1125   1.493       .  S
C1118      C1119   1.397       .  A
C1118      H1127   1.083       .  S
C1119      C1120   1.406       .  A
C1119      H1128   1.081       .  S
C1120      C1121   1.406       .  A
C1120      C1123   1.492       .  S
C1121      C1122   1.404       .  A
C1121      H1129   1.083       .  S
C1122      H1130   1.080       .  S
C1123      H1131   1.087       .  S
C1123      C1124   1.349       .  D
C1124      H1132   1.084       .  S
C1125      H1133   1.087       .  S
C1125      C1126   1.352       .  D
C1126      H1134   1.084       .  S
C1135      C1136   1.401       .  A
C1135      C1140   1.406       .  A
C1135      C1143   1.481       .  S
C1136      C1137   1.396       .  A
C1136      H1145   1.083       .  S
C1137      C1138   1.408       .  A
C1137      H1146   1.079       .  S
C1138      C1139   1.404       .  A
C1138      C1141   1.485       .  S
C1139      C1140   1.396       .  A
C1139      H1147   1.084       .  S
C1140      H1148   1.082       .  S
C1141      H1149   1.087       .  S
C1141      C1142   1.349       .  D
C1142      H1150   1.082       .  S
C1143      H1151   1.087       .  S
C1143      C1144   1.342       .  D
C1144      H1152   1.084       .  S
C1153      C1154   1.405       .  A
C1153      C1158   1.409       .  A
C1153      C1161   1.492       .  S
C1154      C1155   1.396       .  A
C1154      H1163   1.084       .  S
C1155      C1156   1.405       .  A
C1155      H1164   1.082       .  S
C1156      C1157   1.406       .  A
C1156      C1159   1.491       .  S
C1157      C1158   1.405       .  A
C1157      H1165   1.083       .  S
C1158      H1166   1.081       .  S
C1159      H1167   1.087       .  S
C1159      C1160   1.349       .  D
C1160      H1168   1.085       .  S
C1161      H1169   1.087       .  S
C1161      C1162   1.352       .  D
C1162      H1170   1.084       .  S
C1171      C1172   1.406       .  A
C1171      C1176   1.401       .  A
C1171      C1179   1.483       .  S
C1172      C1173   1.399       .  A
C1172      H1181   1.082       .  S
C1173      C1174   1.410       .  A
C1173      H1182   1.080       .  S
C1174      C1175   1.404       .  A
C1174      C1177   1.490       .  S
C1175      C1176   1.397       .  A
C1175      H1183   1.083       .  S
C1176      H1184   1.083       .  S
C1177      H1185   1.087       .  S
C1177      C1178   1.348       .  D
C1178      H1186   1.083       .  S
C1179      H1187   1.087       .  S
C1179      C1180   1.343       .  D
C1180      H1188   1.086       .  S
C1189      C1190   1.401       .  A
C1189      C1194   1.407       .  A
C1189      C1197   1.481       .  S
C1190      C1191   1.398       .  A
C1190      H1199   1.083       .  S
C1191      C1192   1.407       .  A
C1191      H1200   1.082       .  S
C1192      C1193   1.401       .  A
C1192      C1195   1.480       .  S
C1193      C1194   1.397       .  A
C1193      H1201   1.083       .  S
C1194      H1202   1.082       .  S
C1195      H1203   1.087       .  S
C1195      C1196   1.344       .  D
C1196      H1204   1.086       .  S
C1197      H1205   1.086       .  S
C1197      C1198   1.343       .  D
C1198      H1206   1.086       .  S
C1207      C1208   1.402       .  A
C1207      C1212   1.407       .  A
C1207      C1215   1.484       .  S
C1208      C1209   1.401       .  A
C1208      H1217   1.083       .  S
C1209      C1210   1.409       .  A
C1209      H1218   1.082       .  S
C1210      C1211   1.400       .  A
C1210      C1213   1.481       .  S
C1211      C1212   1.394       .  A
C1211      H1219   1.084       .  S
C1212      H1220   1.083       .  S
C1213      H1221   1.087       .  S
C1213      C1214   1.343       .  D
C1214      H1222   1.085       .  S
C1215      H1223   1.086       .  S
C1215      C1216   1.342       .  D
C1216      H1224   1.087       .  S
C1225      C1226   1.400       .  A
C1225      C1230   1.408       .  A
C1225      C1233   1.483       .  S
C1226      C1227   1.393       .  A
C1226      H1235   1.084       .  S
C1227      C1228   1.407       .  A
C1227      H1236   1.081       .  S
C1228      C1229   1.404       .  A
C1228      C1231   1.485       .  S
C1229      C1230   1.401       .  A
C1229      H1237   1.083       .  S
C1230      H1238   1.082       .  S
C1231      H1239   1.087       .  S
C1231      C1232   1.345       .  D
C1232      H1240   1.085       .  S
C1233      H1241   1.087       .  S
C1233      C1234   1.345       .  D
C1234      H1242   1.085       .  S
C1243      C1244   1.402       .  A
C1243      C1248   1.406       .  A
C1243      C1251   1.479       .  S
C1244      C1245   1.398       .  A
C1244      H1253   1.083       .  S
C1245      C1246   1.406       .  A
C1245      H1254   1.083       .  S
C1246      C1247   1.400       .  A
C1246      C1249   1.477       .  S
C1247      C1248   1.397       .  A
C1247      H1255   1.083       .  S
C1248      H1256   1.083       .  S
C1249      H1257   1.086       .  S
C1249      C1250   1.342       .  D
C1250      H1258   1.087       .  S
C1251      H1259   1.087       .  S
C1251      C1252   1.344       .  D
C1252      H1260   1.086       .  S
C1261      C1262   1.413       .  A
C1261      C1266   1.403       .  A
C1261      C1269   1.495       .  S
C1262      C1263   1.405       .  A
C1262      H1271   1.079       .  S
C1263      C1264   1.407       .  A
C1263      H1272   1.081       .  S
C1264      C1265   1.403       .  A
C1264      C1267   1.489       .  S
C1265      C1266   1.395       .  A
C1265      H1273   1.084       .  S
C1266      H1274   1.083       .  S
C1267      H1275   1.087       .  S
C1267      C1268   1.352       .  D
C1268      H1276   1.085       .  S
C1269      H1277   1.087       .  S
C1269      C1270   1.347       .  D
C1270      H1278   1.083       .  S
C1279      C1280   1.405       .  A
C1279      C1284   1.409       .  A
C1279      C1287   1.495       .  S
C1280      C1281   1.400       .  A
C1280      H1289   1.083       .  S
C1281      C1282   1.409       .  A
C1281      H1290   1.080       .  S
C1282      C1283   1.405       .  A
C1282      C1285   1.494       .  S
C1283      C1284   1.401       .  A
C1283      H1291   1.083       .  S
C1284      H1292   1.080       .  S
C1285      H1293   1.087       .  S
C1285      C1286   1.348       .  D
C1286      H1294   1.084       .  S
C1287      H1295   1.087       .  S
C1287      C1288   1.350       .  D
C1288      H1296   1.083       .  S
C1297      C1298   1.404       .  A
C1297      C1302   1.408       .  A
C1297      C1305   1.487       .  S
C1298      C1299   1.400       .  A
C1298      H1307   1.083       .  S
C1299      C1300   1.408       .  A
C1299      H1308   1.082       .  S
C1300      C1301   1.402       .  A
C1300      C1303   1.487       .  S
C1301      C1302   1.398       .  A
C1301      H1309   1.083       .  S
C1302      H1310   1.081       .  S
C1303      H1311   1.087       .  S
C1303      C1304   1.346       .  D
C1304      H1312   1.086       .  S
C1305      H1313   1.087       .  S
C1305      C1306   1.347       .  D
C1306      H1314   1.085       .  S
C1315      C1316   1.401       .  A
C1315      C1320   1.409       .  A
C1315      C1323   1.485       .  S
C1316      C1317   1.395       .  A
C1316      H1325   1.084       .  S
C1317      C1318   1.407       .  A
C1317      H1326   1.082       .  S
C1318      C1319   1.402       .  A
C1318      C1321   1.484       .  S
C1319      C1320   1.400       .  A
C1319      H1327   1.083       .  S
C1320      H1328   1.081       .  S
C1321      H1329   1.087       .  S
C1321      C1322   1.344       .  D
C1322      H1330   1.086       .  S
C1323      H1331   1.087       .  S
C1323      C1324   1.345       .  D
C1324      H1332   1.084       .  S
C1333      C1334   1.401       .  A
C1333      C1338   1.409       .  A
C1333      C1341   1.486       .  S
C1334      C1335   1.396       .  A
C1334      H1343   1.083       .  S
C1335      C1336   1.407       .  A
C1335      H1344   1.081       .  S
C1336      C1337   1.405       .  A
C1336      C1339   1.489       .  S
C1337      C1338   1.402       .  A
C1337      H1345   1.083       .  S
C1338      H1346   1.082       .  S
C1339      H1347   1.087       .  S
C1339      C1340   1.348       .  D
C1340      H1348   1.085       .  S
C1341      H1349   1.087       .  S
C1341      C1342   1.345       .  D
C1342      H1350   1.085       .  S
C1351      C1352   1.403       .  A
C1351      C1356   1.404       .  A
C1351      C1359   1.478       .  S
C1352      C1353   1.400       .  A
C1352      H1361   1.083       .  S
C1353      C1354   1.405       .  A
C1353      H1362   1.083       .  S
C1354      C1355   1.402       .  A
C1354      C1357   1.477       .  S
C1355      C1356   1.396       .  A
C1355      H1363   1.083       .  S
C1356      H1364   1.083       .  S
C1357      H1365   1.087       .  S
C1357      C1358   1.345       .  D
C1358      H1366   1.085       .  S
C1359      H1367   1.087       .  S
C1359      C1360   1.346       .  D
C1360      H1368   1.086       .  S
C1369      C1370   1.401       .  A
C1369      C1374   1.403       .  A
C1369      C1377   1.472       .  S
C1370      C1371   1.397       .  A
C1370      H1379   1.083       .  S
C1371      C1372   1.406       .  A
C1371      H1380   1.083       .  S
C1372      C1373   1.402       .  A
C1372      C1375   1.475       .  S
C1373      C1374   1.396       .  A
C1373      H1381   1.083       .  S
C1374      H1382   1.083       .  S
C1375      H1383   1.087       .  S
C1375      C1376   1.343       .  D
C1376      H1384   1.087       .  S
C1377      H1385   1.086       .  S
C1377      C1378   1.344       .  D
C1378      H1386   1.087       .  S
C1387      C1388   1.401       .  A
C1387      C1392   1.405       .  A
C1387      C1395   1.481       .  S
C1388      C1389   1.399       .  A
C1388      H1397   1.083       .  S
C1389      C1390   1.411       .  A
C1389      H1398   1.079       .  S
C1390      C1391   1.403       .  A
C1390      C1393   1.488       .  S
C1391      C1392   1.395       .  A
C1391      H1399   1.083       .  S
C1392      H1400   1.082       .  S
C1393      H1401   1.087       .  S
C1393      C1394   1.345       .  D
C1394      H1402   1.083       .  S
C1395      H1403   1.087       .  S
C1395      C1396   1.343       .  D
C1396      H1404   1.086       .  S
C1405      C1406   1.407       .  A
C1405      C1410   1.403       .  A
C1405      C1413   1.482       .  S
C1406      C1407   1.402       .  A
C1406      H1415   1.081       .  S
C1407      C1408   1.409       .  A
C1407      H1416   1.082       .  S
C1408      C1409   1.399       .  A
C1408      C1411   1.480       .  S
C1409      C1410   1.391       .  A
C1409      H1417   1.084       .  S
C1410      H1418   1.084       .  S
C1411      H1419   1.088       .  S
C1411      C1412   1.340       .  D
C1412      H1420   1.085       .  S
C1413      H1421   1.087       .  S
C1413      C1414   1.350       .  D
C1414      H1422   1.085       .  S
C1423      C1424   1.404       .  A
C1423      C1428   1.409       .  A
C1423      C1431   1.490       .  S
C1424      C1425   1.397       .  A
C1424      H1433   1.083       .  S
C1425      C1426   1.407       .  A
C1425      H1434   1.082       .  S
C1426      C1427   1.404       .  A
C1426      C1429   1.489       .  S
C1427      C1428   1.402       .  A
C1427      H1435   1.083       .  S
C1428      H1436   1.081       .  S
C1429      H1437   1.087       .  S
C1429      C1430   1.345       .  D
C1430      H1438   1.086       .  S
C1431      H1439   1.088   1_554  S
C1431      C1432   1.347       .  D
C1432      H1440   1.084       .  S
C1441      C1442   1.403       .  A
C1441      C1446   1.408       .  A
C1441      C1449   1.486       .  S
C1442      C1443   1.398       .  A
C1442      H1451   1.083       .  S
C1443      C1444   1.406       .  A
C1443      H1452   1.082       .  S
C1444      C1445   1.402       .  A
C1444      C1447   1.483       .  S
C1445      C1446   1.397       .  A
C1445      H1453   1.084       .  S
C1446      H1454   1.081       .  S
C1447      H1455   1.088       .  S
C1447      C1448   1.344   1_554  D
C1448      H1456   1.084   1_556  S
C1449      H1457   1.087       .  S
C1449      C1450   1.345       .  D
C1450      H1458   1.085       .  S
C1459      C1460   1.404       .  A
C1459      C1464   1.409       .  A
C1459      C1467   1.491       .  S
C1460      C1461   1.399       .  A
C1460      H1469   1.083       .  S
C1461      C1462   1.407       .  A
C1461      H1470   1.083       .  S
C1462      C1463   1.404       .  A
C1462      C1465   1.489       .  S
C1463      C1464   1.404       .  A
C1463      H1471   1.083       .  S
C1464      H1472   1.082       .  S
C1465      H1473   1.087       .  S
C1465      C1466   1.347       .  D
C1466      H1474   1.087       .  S
C1467      H1475   1.087       .  S
C1467      C1468   1.349       .  D
C1468      H1476   1.086       .  S
C1477      C1478   1.403       .  A
C1477      C1482   1.409       .  A
C1477      C1485   1.486       .  S
C1478      C1479   1.399       .  A
C1478      H1487   1.083       .  S
C1479      C1480   1.408       .  A
C1479      H1488   1.082       .  S
C1480      C1481   1.400       .  A
C1480      C1483   1.482       .  S
C1481      C1482   1.395       .  A
C1481      H1489   1.084       .  S
C1482      H1490   1.081       .  S
C1483      H1491   1.087       .  S
C1483      C1484   1.345       .  D
C1484      H1492   1.085       .  S
C1485      H1493   1.087       .  S
C1485      C1486   1.342       .  D
C1486      H1494   1.085       .  S
C1495      C1496   1.402       .  A
C1495      C1500   1.408       .  A
C1495      C1503   1.483       .  S
C1496      C1497   1.396       .  A
C1496      H1505   1.083       .  S
C1497      C1498   1.406       .  A
C1497      H1506   1.082       .  S
C1498      C1499   1.400       .  A
C1498      C1501   1.478       .  S
C1499      C1500   1.394       .  A
C1499      H1507   1.084       .  S
C1500      H1508   1.080       .  S
C1501      H1509   1.087       .  S
C1501      C1502   1.343       .  D
C1502      H1510   1.085       .  S
C1503      H1511   1.087       .  S
C1503      C1504   1.343       .  D
C1504      H1512   1.083       .  S
C1513      C1514   1.403       .  A
C1513      C1518   1.407       .  A
C1513      C1521   1.484       .  S
C1514      C1515   1.396       .  A
C1514      H1523   1.084       .  S
C1515      C1516   1.407       .  A
C1515      H1524   1.081       .  S
C1516      C1517   1.402       .  A
C1516      C1519   1.483       .  S
C1517      C1518   1.398       .  A
C1517      H1525   1.083       .  S
C1518      H1526   1.081       .  S
C1519      H1527   1.087       .  S
C1519      C1520   1.343       .  D
C1520      H1528   1.085       .  S
C1521      H1529   1.087       .  S
C1521      C1522   1.348       .  D
C1522      H1530   1.085       .  S
C1531      C1532   1.404       .  A
C1531      C1536   1.405       .  A
C1531      C1539   1.484       .  S
C1532      C1533   1.400       .  A
C1532      H1541   1.084       .  S
C1533      C1534   1.408       .  A
C1533      H1542   1.081       .  S
C1534      C1535   1.404       .  A
C1534      C1537   1.487       .  S
C1535      C1536   1.398       .  A
C1535      H1543   1.083       .  S
C1536      H1544   1.082       .  S
C1537      H1545   1.087       .  S
C1537      C1538   1.347       .  D
C1538      H1546   1.084       .  S
C1539      H1547   1.087       .  S
C1539      C1540   1.349       .  D
C1540      H1548   1.085       .  S
C1549      C1550   1.402       .  A
C1549      C1554   1.409       .  A
C1549      C1557   1.487       .  S
C1550      C1551   1.397       .  A
C1550      H1559   1.083       .  S
C1551      C1552   1.407       .  A
C1551      H1560   1.081       .  S
C1552      C1553   1.404       .  A
C1552      C1555   1.487       .  S
C1553      C1554   1.400       .  A
C1553      H1561   1.083       .  S
C1554      H1562   1.081       .  S
C1555      H1563   1.087       .  S
C1555      C1556   1.346       .  D
C1556      H1564   1.085       .  S
C1557      H1565   1.087       .  S
C1557      C1558   1.346       .  D
C1558      H1566   1.085       .  S
C1567      C1568   1.403       .  A
C1567      C1572   1.407       .  A
C1567      C1575   1.486       .  S
C1568      C1569   1.399       .  A
C1568      H1577   1.083       .  S
C1569      C1570   1.407       .  A
C1569      H1578   1.082       .  S
C1570      C1571   1.404       .  A
C1570      C1573   1.487       .  S
C1571      C1572   1.402       .  A
C1571      H1579   1.083       .  S
C1572      H1580   1.082       .  S
C1573      H1581   1.086       .  S
C1573      C1574   1.347       .  D
C1574      H1582   1.086       .  S
C1575      H1583   1.087       .  S
C1575      C1576   1.347       .  D
C1576      H1584   1.086       .  S
C1585      C1586   1.402       .  A
C1585      C1590   1.409       .  A
C1585      C1593   1.486       .  S
C1586      C1587   1.395       .  A
C1586      H1595   1.084       .  S
C1587      C1588   1.409       .  A
C1587      H1596   1.082       .  S
C1588      C1589   1.403       .  A
C1588      C1591   1.489       .  S
C1589      C1590   1.401       .  A
C1589      H1597   1.083       .  S
C1590      H1598   1.081       .  S
C1591      H1599   1.087       .  S
C1591      C1592   1.344       .  D
C1592      H1600   1.086       .  S
C1593      H1601   1.088       .  S
C1593      C1594   1.346       .  D
C1594      H1602   1.084       .  S
C1603      C1604   1.407       .  A
C1603      C1608   1.406       .  A
C1603      C1611   1.495       .  S
C1604      C1605   1.406       .  A
C1604      H1613   1.083       .  S
C1605      C1606   1.410       .  A
C1605      H1614   1.080       .  S
C1606      C1607   1.405       .  A
C1606      C1609   1.495       .  S
C1607      C1608   1.397       .  A
C1607      H1615   1.084       .  S
C1608      H1616   1.081       .  S
C1609      H1617   1.087       .  S
C1609      C1610   1.352       .  D
C1610      H1618   1.084       .  S
C1611      H1619   1.087   1_554  S
C1611      C1612   1.351       .  D
C1612      H1620   1.085       .  S
C1621      C1622   1.402       .  A
C1621      C1626   1.410       .  A
C1621      C1629   1.488       .  S
C1622      C1623   1.395       .  A
C1622      H1631   1.084       .  S
C1623      C1624   1.408       .  A
C1623      H1632   1.082       .  S
C1624      C1625   1.404       .  A
C1624      C1627   1.491       .  S
C1625      C1626   1.403       .  A
C1625      H1633   1.083       .  S
C1626      H1634   1.081       .  S
C1627      H1635   1.087       .  S
C1627      C1628   1.346       .  D
C1628      H1636   1.086       .  S
C1629      H1637   1.087   1_554  S
C1629      C1630   1.345       .  D
C1630      H1638   1.084       .  S
C1639      C1640   1.409       .  A
C1639      C1644   1.403       .  A
C1639      C1647   1.491       .  S
C1640      C1641   1.400       .  A
C1640      H1649   1.081       .  S
C1641      C1642   1.408       .  A
C1641      H1650   1.081       .  S
C1642      C1643   1.404       .  A
C1642      C1645   1.491       .  S
C1643      C1644   1.400       .  A
C1643      H1651   1.083       .  S
C1644      H1652   1.083       .  S
C1645      H1653   1.087       .  S
C1645      C1646   1.348       .  D
C1646      H1654   1.085       .  S
C1647      H1655   1.087       .  S
C1647      C1648   1.346       .  D
C1648      H1656   1.084       .  S
C1657      C1658   1.403       .  A
C1657      C1662   1.408       .  A
C1657      C1665   1.487       .  S
C1658      C1659   1.396       .  A
C1658      H1667   1.084       .  S
C1659      C1660   1.409       .  A
C1659      H1668   1.079       .  S
C1660      C1661   1.404       .  A
C1660      C1663   1.489       .  S
C1661      C1662   1.398       .  A
C1661      H1669   1.083       .  S
C1662      H1670   1.080       .  S
C1663      H1671   1.087       .  S
C1663      C1664   1.347       .  D
C1664      H1672   1.083       .  S
C1665      H1673   1.087       .  S
C1665      C1666   1.347       .  D
C1666      H1674   1.084       .  S
C1675      C1676   1.403       .  A
C1675      C1680   1.406       .  A
C1675      C1683   1.483       .  S
C1676      C1677   1.399       .  A
C1676      H1685   1.083       .  S
C1677      C1678   1.407       .  A
C1677      H1686   1.082       .  S
C1678      C1679   1.403       .  A
C1678      C1681   1.483       .  S
C1679      C1680   1.397       .  A
C1679      H1687   1.083       .  S
C1680      H1688   1.082       .  S
C1681      H1689   1.087       .  S
C1681      C1682   1.347       .  D
C1682      H1690   1.086       .  S
C1683      H1691   1.087       .  S
C1683      C1684   1.344       .  D
C1684      H1692   1.086       .  S
C1693      C1694   1.402       .  A
C1693      C1698   1.407       .  A
C1693      C1701   1.490       .  S
C1694      C1695   1.402       .  A
C1694      H1703   1.083       .  S
C1695      C1696   1.412       .  A
C1695      H1704   1.079       .  S
C1696      C1697   1.403       .  A
C1696      C1699   1.493       .  S
C1697      C1698   1.396       .  A
C1697      H1705   1.084       .  S
C1698      H1706   1.082       .  S
C1699      H1707   1.088       .  S
C1699      C1700   1.345       .  D
C1700      H1708   1.082       .  S
C1701      H1709   1.086       .  S
C1701      C1702   1.343       .  D
C1702      H1710   1.087       .  S
C1711      C1712   1.401       .  A
C1711      C1716   1.407       .  A
C1711      C1719   1.482       .  S
C1712      C1713   1.398       .  A
C1712      H1721   1.083       .  S
C1713      C1714   1.406       .  A
C1713      H1722   1.083       .  S
C1714      C1715   1.404       .  A
C1714      C1717   1.485       .  S
C1715      C1716   1.403       .  A
C1715      H1723   1.083       .  S
C1716      H1724   1.083       .  S
C1717      H1725   1.085       .  S
C1717      C1718   1.346       .  D
C1718      H1726   1.087       .  S
C1719      H1727   1.087       .  S
C1719      C1720   1.346       .  D
C1720      H1728   1.087       .  S
C1729      C1730   1.400       .  A
C1729      C1734   1.409       .  A
C1729      C1737   1.483       .  S
C1730      C1731   1.395       .  A
C1730      H1739   1.084       .  S
C1731      C1732   1.410       .  A
C1731      H1740   1.079       .  S
C1732      C1733   1.402       .  A
C1732      C1735   1.486       .  S
C1733      C1734   1.396       .  A
C1733      H1741   1.084       .  S
C1734      H1742   1.081       .  S
C1735      H1743   1.087       .  S
C1735      C1736   1.344       .  D
C1736      H1744   1.083       .  S
C1737      H1745   1.087       .  S
C1737      C1738   1.341       .  D
C1738      H1746   1.085       .  S
C1747      C1748   1.402       .  A
C1747      C1752   1.407       .  A
C1747      C1755   1.486       .  S
C1748      C1749   1.393       .  A
C1748      H1757   1.084       .  S
C1749      C1750   1.402       .  A
C1749      H1758   1.083       .  S
C1750      C1751   1.414       .  A
C1750      C1753   1.494       .  S
C1751      C1752   1.406       .  A
C1751      H1759   1.080       .  S
C1752      H1760   1.082       .  S
C1753      H1761   1.087       .  S
C1753      C1754   1.345       .  D
C1754      H1762   1.083       .  S
C1755      H1763   1.087       .  S
C1755      C1756   1.351       .  D
C1756      H1764   1.085       .  S
C1765      C1766   1.403       .  A
C1765      C1770   1.404       .  A
C1765      C1773   1.478       .  S
C1766      C1767   1.397       .  A
C1766      H1775   1.084       .  S
C1767      C1768   1.404       .  A
C1767      H1776   1.083       .  S
C1768      C1769   1.403       .  A
C1768      C1771   1.479       .  S
C1769      C1770   1.399       .  A
C1769      H1777   1.083       .  S
C1770      H1778   1.083       .  S
C1771      H1779   1.087       .  S
C1771      C1772   1.343       .  D
C1772      H1780   1.087       .  S
C1773      H1781   1.087       .  S
C1773      C1774   1.344       .  D
C1774      H1782   1.086       .  S
C1783      C1784   1.403       .  A
C1783      C1788   1.406       .  A
C1783      C1791   1.481       .  S
C1784      C1785   1.397       .  A
C1784      H1793   1.083       .  S
C1785      C1786   1.405       .  A
C1785      H1794   1.082       .  S
C1786      C1787   1.405       .  A
C1786      C1789   1.482       .  S
C1787      C1788   1.401       .  A
C1787      H1795   1.083       .  S
C1788      H1796   1.083       .  S
C1789      H1797   1.086       .  S
C1789      C1790   1.348       .  D
C1790      H1798   1.086       .  S
C1791      H1799   1.088       .  S
C1791      C1792   1.347       .  D
C1792      H1800   1.086       .  S
