geometry optimzed in LAMMPS
_audit_creation_date              2020-12-01 
_audit_creation_method            'lammps2cif' 
_symmetry_space_group_name_H-M    'P1' 
_symmetry_Int_Tables_number       1 
_symmetry_cell_setting            triclinic 
loop_ 
_symmetry_equiv_pos_as_xyz 
  x,y,z 
_cell_length_a                    53.78957045 
_cell_length_b                    53.651356860071 
_cell_length_c                    53.53696761092444 
_cell_angle_alpha                 89.94195865105716 
_cell_angle_beta                  89.96971455300995 
_cell_angle_gamma                 89.9643935523183 
loop_ 
_atom_site_label 
_atom_site_type_symbol 
_atom_site_fract_x 
_atom_site_fract_y 
_atom_site_fract_z 
_atom_site_charge 
N1          N  0.00143333  0.23753416  0.54027761    -0.36300
N2          N  0.03884108  0.23846650  0.50173401    -0.56800
N3          N  0.99921816  0.24116551  0.46424077    -0.36300
N4          N  0.96204520  0.23814468  0.50293200    -0.56800
C5          C  0.02214735  0.23195835  0.55350956     0.27300
C6          C  0.98166879  0.23041511  0.55420372     0.27300
C7          C  0.01913478  0.23636075  0.44961186     0.27300
C8          C  0.97866937  0.23718121  0.45020984     0.27300
C9          C  0.05370032  0.24283666  0.52161498     0.35900
C10         C  0.05258467  0.24318739  0.48116512     0.35900
C11         C  0.94797382  0.23999019  0.52373493     0.35900
C12         C  0.94679023  0.24264360  0.48338638     0.35900
C13         C  0.01548463  0.22106014  0.57602416    -0.21600
C14         C  0.98994591  0.22021904  0.57653136    -0.21600
C15         C  0.01115675  0.22958052  0.42592507    -0.21600
C16         C  0.98563788  0.23017577  0.42628755    -0.21600
C17         C  0.07705803  0.25031394  0.51361292    -0.22600
C18         C  0.07641960  0.25027511  0.48793923    -0.22600
C19         C  0.92357894  0.24544224  0.51736210    -0.22600
C20         C  0.92284574  0.24715874  0.49176654    -0.22600
C21         C  0.04673882  0.23846729  0.54672135    -0.18000
C22         C  0.95641841  0.23474528  0.54816884    -0.18000
C23         C  0.95380497  0.24068546  0.45805576    -0.18000
C24         C  0.04429383  0.23983194  0.45638060    -0.18000
H25         H  0.02775180  0.21486427  0.59080232     0.14900
H26         H  0.97878205  0.21325834  0.59183454     0.14900
H27         H  0.02253720  0.22505230  0.40987673     0.14900
H28         H  0.97360330  0.22604590  0.41063591     0.14900
H29         H  0.09299091  0.25499994  0.52500368     0.13200
H30         H  0.09172097  0.25494709  0.47566062     0.13200
H31         H  0.90784261  0.24746557  0.52980076     0.13200
H32         H  0.90648079  0.25079867  0.48058339     0.13200
H33         H  0.00074348  0.24859306  0.52435346     0.26500
H34         H  0.99972397  0.24936695  0.48177127     0.26500
O35         O  0.22890616  0.21250858  0.27442656    -0.88000
C36         C  0.23076295  0.28674853  0.29163901     0.88000
Mg37       Mg  0.26131045  0.19129847  0.26524993     1.58100
O38         O  0.20905051  0.27342215  0.23075869    -0.87700
O39         O  0.19316069  0.22220922  0.25752110    -0.75100
C40         C  0.32553439  0.25942844  0.18435712     0.93100
O41         O  0.27243457  0.24224373  0.30290001    -0.74900
O42         O  0.32853199  0.24347558  0.20164333    -0.82400
Mg43       Mg  0.23087133  0.23455731  0.30804600     1.58000
C44         C  0.23945459  0.31672754  0.17128135     0.93000
O45         O  0.18993360  0.22809795  0.31880406    -0.80700
H46         H  0.18537325  0.25656066  0.20748696    -0.06000
C47         C  0.28279919  0.29201272  0.23653789     0.87900
O48         O  0.25438282  0.19623200  0.22326920    -0.75200
O49         O  0.22101991  0.26676152  0.28581958    -0.87900
O50         O  0.22618610  0.31920629  0.19098213    -0.80700
C51         C  0.17741262  0.32591459  0.25733047     0.93100
C52         C  0.16953709  0.24005014  0.31673855     0.93000
Mg53       Mg  0.26327748  0.26430273  0.19153150     1.58000
O54         O  0.30479295  0.27069960  0.18153872    -0.80700
O55         O  0.22118957  0.25681153  0.19545746    -0.74900
O56         O  0.17549691  0.30526748  0.26898947    -0.80700
O57         O  0.24226155  0.20059094  0.33196941    -0.82500
O58         O  0.31706586  0.19260396  0.23029099    -0.80800
C59         C  0.20429437  0.26228147  0.21114077     0.87400
O60         O  0.27191007  0.23153989  0.21290761    -0.87900
O61         O  0.26362435  0.28621614  0.22526727    -0.88000
O62         O  0.29914933  0.27589031  0.24228859    -0.75100
Mg63       Mg  0.18755672  0.26420909  0.26373683     1.58000
O64         O  0.19497928  0.32983871  0.24178302    -0.82400
H65         H  0.20667034  0.18691996  0.25908528    -0.06200
O66         O  0.28313793  0.22493962  0.26749983    -0.87700
H67         H  0.30783706  0.24148464  0.28988215    -0.06000
H68         H  0.25585744  0.20928684  0.18772237    -0.06200
C69         C  0.28871131  0.23607715  0.28689254     0.87400
C70         C  0.20948163  0.20629879  0.26382202     0.88000
C71         C  0.26087006  0.21222627  0.20704881     0.88000
H72         H  0.28550437  0.31119326  0.24207461    -0.06200
O73         O  0.23612649  0.30308009  0.27533306    -0.75200
Mg74       Mg  0.30511810  0.23383872  0.23545019     1.58000
H75         H  0.23533926  0.29018663  0.31099223    -0.06200
C76         C  0.25822546  0.18352563  0.32759424     0.93000
O77         O  0.29514456  0.16846739  0.25576231    -0.82400
C78         C  0.31361225  0.17181309  0.24139621     0.93100
O79         O  0.16549597  0.25501554  0.29870826    -0.82400
Mg80       Mg  0.23030529  0.30763873  0.23296245     1.58200
O81         O  0.26776249  0.18073853  0.30602126    -0.80700
O82         O  0.25473029  0.29882327  0.16909377    -0.82400
O83         O  0.76543275  0.24352949  0.70647390    -0.88000
C84         C  0.75167439  0.18861628  0.75829381     0.88000
Mg85       Mg  0.79224304  0.27295353  0.71228214     1.58100
O86         O  0.70484405  0.23466057  0.75437603    -0.87700
O87         O  0.72572810  0.23893449  0.69868526    -0.75100
C88         C  0.76815757  0.31654839  0.82509986     0.93100
O89         O  0.80403837  0.21907549  0.74493865    -0.74900
O90         O  0.78608231  0.31355666  0.80993925    -0.82400
Mg91       Mg  0.77808910  0.20604301  0.71336167     1.58000
C92         C  0.67778961  0.26536495  0.82153567     0.93000
O93         O  0.75565479  0.18796954  0.68118557    -0.80700
H94         H  0.67935771  0.25344281  0.73474482    -0.06000
C95         C  0.75641420  0.24465578  0.80960857     0.87900
O96         O  0.76140555  0.29982993  0.72476034    -0.75200
O97         O  0.74753682  0.20092906  0.73923993    -0.87900
O98         O  0.67949603  0.24452944  0.81012984    -0.80700
C99         C  0.67913849  0.17413916  0.76810634     0.93100
C100        C  0.73480804  0.17697350  0.67820463     0.93000
Mg101      Mg  0.72513947  0.28756690  0.79047630     1.58000
O102        O  0.74762934  0.30494240  0.82271215    -0.80700
O103        O  0.69895542  0.27477038  0.75904859    -0.74900
O104        O  0.69068293  0.17693772  0.74738338    -0.80700
O105        O  0.81014649  0.21174735  0.68595777    -0.82500
O106        O  0.81110346  0.31690920  0.75673576    -0.80800
C107        C  0.69361253  0.25403223  0.74896131     0.87400
O108        O  0.75529180  0.29246487  0.76446360    -0.87900
O109        O  0.73770044  0.24997195  0.79731708    -0.88000
O110        O  0.77735914  0.25470952  0.80522161    -0.75100
Mg111      Mg  0.71069415  0.20818720  0.72475216     1.58000
O112        O  0.68216968  0.18949950  0.78597900    -0.82400
H113        H  0.74809810  0.26281241  0.67968184    -0.06200
O114        O  0.79785308  0.25911788  0.74966044    -0.87700
H115        H  0.82340568  0.24049821  0.76935284    -0.06000
H116        H  0.73711630  0.31937849  0.74616121    -0.06200
C117        C  0.80920420  0.23982804  0.75508505     0.87400
C118        C  0.74671483  0.24886078  0.69420116     0.88000
C119        C  0.75084065  0.30466881  0.74540330     0.88000
H120        H  0.75505499  0.23066171  0.82408769    -0.06200
O121        O  0.74096706  0.19351551  0.77885872    -0.75200
Mg122      Mg  0.79201718  0.28551921  0.77906041     1.58000
H123        H  0.76516352  0.17368684  0.75758977    -0.06200
C124        C  0.82589187  0.22929503  0.68332040     0.93000
O125        O  0.82006580  0.30454094  0.71827197    -0.82400
C126        C  0.82265589  0.31993301  0.73614199     0.93100
O127        O  0.71674285  0.18034773  0.69320675    -0.82400
Mg128      Mg  0.71057528  0.22080225  0.79184682     1.58200
O129        O  0.82408327  0.24974678  0.69528447    -0.80700
O130        O  0.69343700  0.28274909  0.81796647    -0.82400
N131        N  0.49903040  0.03700207  0.23419397    -0.36300
N132        N  0.53632676  0.99762709  0.24138481    -0.56800
N133        N  0.49724558  0.96256480  0.25210541    -0.36300
N134        N  0.45990362  0.00163840  0.24730246    -0.56800
C135        C  0.52010529  0.05090130  0.23556791     0.27300
C136        C  0.47936696  0.05269332  0.23693792     0.27300
C137        C  0.51742534  0.94903270  0.25877941     0.27300
C138        C  0.47730436  0.95155670  0.26281101     0.27300
C139        C  0.55125788  0.01622661  0.23325410     0.35900
C140        C  0.55000076  0.97639239  0.24084418     0.35900
C141        C  0.44547834  0.02089569  0.23979287     0.35900
C142        C  0.44475511  0.98159819  0.24946032     0.35900
C143        C  0.51365183  0.07573614  0.23874168    -0.21600
C144        C  0.48807700  0.07690872  0.23922875    -0.21600
C145        C  0.51022420  0.92934900  0.27393663    -0.21600
C146        C  0.48490360  0.93097091  0.27651725    -0.21600
C147        C  0.57454901  0.00670950  0.22746312    -0.22600
C148        C  0.57369869  0.98148336  0.23211538    -0.22600
C149        C  0.42095104  0.01307337  0.23775355    -0.22600
C150        C  0.42060050  0.98813266  0.24340423    -0.22600
C151        C  0.54498070  0.04196142  0.23327249    -0.18000
C152        C  0.45379473  0.04580439  0.23662276    -0.18000
C153        C  0.45222322  0.95790969  0.25835511    -0.18000
C154        C  0.54195155  0.95302021  0.25024459    -0.18000
H155        H  0.52605853  0.09151972  0.24034087     0.14900
H156        H  0.47724636  0.09378008  0.24121982     0.14900
H157        H  0.52195650  0.91507004  0.28201993     0.14900
H158        H  0.47329878  0.91811549  0.28686865     0.14900
H159        H  0.59061505  0.01696690  0.22093693     0.13200
H160        H  0.58897992  0.96852779  0.22998173     0.13200
H161        H  0.40482141  0.02410627  0.23293206     0.13200
H162        H  0.40428291  0.97634997  0.24364511     0.13200
H163        H  0.49803349  0.01841450  0.22961556     0.26500
H164        H  0.49668909  0.97618409  0.23842914     0.26500
O165        O  0.73315026  0.79521588  0.25064547    -0.88000
C166        C  0.74473822  0.74414306  0.30563326     0.88000
Mg167      Mg  0.70784048  0.78749206  0.22055359     1.58100
O168        O  0.79307511  0.74865330  0.26133245    -0.87700
O169        O  0.77241440  0.80408471  0.25615197    -0.75100
C170        C  0.73545310  0.67354446  0.17870761     0.93100
O171        O  0.69402183  0.75665680  0.27401939    -0.74900
O172        O  0.71689364  0.68808114  0.18149709    -0.82400
Mg173      Mg  0.71877700  0.78896479  0.28781576     1.58000
C174        C  0.82532425  0.68339751  0.23298013     0.93000
O175        O  0.74034427  0.82170108  0.30666366    -0.80700
H176        H  0.81909016  0.76854995  0.24360231    -0.06000
C177        C  0.74465957  0.69108879  0.25026981     0.87900
O178        O  0.73978936  0.77511033  0.19480897    -0.75200
O179        O  0.74935020  0.76357095  0.29408939    -0.87900
O180        O  0.82108813  0.69465264  0.25351426    -0.80700
C181        C  0.81676626  0.73642833  0.32286266     0.93100
C182        C  0.76099663  0.82457032  0.31813337     0.93000
Mg183      Mg  0.77720122  0.71063675  0.20803513     1.58000
O184        O  0.75613923  0.67791453  0.18949051    -0.80700
O185        O  0.80167124  0.74305305  0.22177021    -0.74900
O186        O  0.80469169  0.75668425  0.31990485    -0.80700
O187        O  0.68607930  0.81571071  0.28071762    -0.82500
O188        O  0.69106385  0.74169734  0.17587712    -0.80800
C189        C  0.80532923  0.75391205  0.24252262     0.87400
O190        O  0.74638820  0.73541715  0.20178786    -0.87900
O191        O  0.76302071  0.70394118  0.24518301    -0.88000
O192        O  0.72374538  0.69489190  0.23999048    -0.75100
Mg193      Mg  0.78618779  0.77832283  0.28759069     1.58000
O194        O  0.81464673  0.71862332  0.30740450    -0.82400
H195        H  0.75016711  0.82234206  0.23157124    -0.06200
O196        O  0.70297896  0.75025855  0.23464984    -0.87700
H197        H  0.67670314  0.73080667  0.25249532    -0.06000
H198        H  0.76503179  0.75444264  0.17570265    -0.06200
C199        C  0.69055197  0.74537029  0.25344702     0.87400
C200        C  0.75160236  0.80797881  0.24567717     0.88000
C201        C  0.75083202  0.75472970  0.18999899     0.88000
H202        H  0.74624882  0.67677926  0.26441334    -0.06200
O203        O  0.75588807  0.72380151  0.30084102    -0.75200
Mg204      Mg  0.70975631  0.72026825  0.20845110     1.58000
H205        H  0.73034666  0.74430703  0.31973624    -0.06200
C206        C  0.67139896  0.81706739  0.26206391     0.93000
O207        O  0.68078107  0.77963619  0.18924247    -0.82400
C208        C  0.67850891  0.76177245  0.17382610     0.93100
O209        O  0.77908263  0.80957209  0.31511309    -0.82400
Mg210      Mg  0.78811320  0.71135367  0.27538388     1.58200
O211        O  0.67495619  0.80433084  0.24229368    -0.80700
O212        O  0.81021779  0.68460415  0.21467893    -0.82400
N213        N  0.95995342  0.73251593  0.49830927    -0.36300
N214        N  0.99755087  0.73372361  0.53667651    -0.56800
N215        N  0.03564051  0.73139304  0.49786633    -0.36300
N216        N  0.99810379  0.73226252  0.45940779    -0.56800
C217        C  0.94608111  0.73851678  0.51855075     0.27300
C218        C  0.94650510  0.73865855  0.47785601     0.27300
C219        C  0.04924381  0.73814840  0.51799656     0.27300
C220        C  0.04936830  0.73666853  0.47731013     0.27300
C221        C  0.97742596  0.72986125  0.55136771     0.35900
C222        C  0.01781191  0.72973994  0.55107153     0.35900
C223        C  0.97770457  0.72734322  0.44554482     0.35900
C224        C  0.01802204  0.72593455  0.44533154     0.35900
C225        C  0.92359598  0.74855991  0.51088762    -0.21600
C226        C  0.92392082  0.74880267  0.48521972    -0.21600
C227        C  0.07178353  0.74799262  0.51015031    -0.21600
C228        C  0.07179618  0.74721290  0.48447408    -0.21600
C229        C  0.98490878  0.72354726  0.57530416    -0.22600
C230        C  0.01052332  0.72339800  0.57510682    -0.22600
C231        C  0.98464848  0.71782907  0.42251319    -0.22600
C232        C  0.01022757  0.71687433  0.42239662    -0.22600
C233        C  0.95252916  0.73368512  0.54370209    -0.18000
C234        C  0.95310630  0.73322894  0.45283173    -0.18000
C235        C  0.04302176  0.73005305  0.45250252    -0.18000
C236        C  0.04264038  0.73391711  0.54324648    -0.18000
H237        H  0.90842444  0.75486004  0.52258065     0.14900
H238        H  0.90897928  0.75527058  0.47332744     0.14900
H239        H  0.08682244  0.75473432  0.52174235     0.14900
H240        H  0.08686982  0.75316118  0.47247179     0.14900
H241        H  0.97316002  0.71980583  0.59129031     0.13200
H242        H  0.02241396  0.71958353  0.59095940     0.13200
H243        H  0.97255416  0.71244515  0.40729906     0.13200
H244        H  0.02172820  0.71050866  0.40708720     0.13200
H245        H  0.97619982  0.72199650  0.49840200     0.26500
H246        H  0.01942694  0.72083062  0.49827525     0.26500
O247        O  0.22360261  0.71329707  0.72876272    -0.88000
C248        C  0.20570940  0.78733479  0.73787474     0.88000
Mg249      Mg  0.23372496  0.68945472  0.75966600     1.58100
O250        O  0.26432231  0.77705126  0.71077712    -0.87700
O251        O  0.23861783  0.72685997  0.69317621    -0.75100
C252        C  0.31828688  0.75509952  0.82258147     0.93100
O253        O  0.19647389  0.73945973  0.77566241    -0.74900
O254        O  0.30079129  0.73946616  0.82581018    -0.82400
Mg255      Mg  0.19018268  0.73518129  0.73349731     1.58000
C256        C  0.32591338  0.81677664  0.73687130     0.93000
O257        O  0.17789580  0.73118850  0.69255112    -0.80700
H258        H  0.28535859  0.76225225  0.68381642    -0.06000
C259        C  0.26379857  0.79002609  0.78568171     0.87900
O260        O  0.27533449  0.69526601  0.75155000    -0.75200
O261        O  0.21110435  0.76846854  0.72580361    -0.87900
O262        O  0.30444395  0.82049082  0.72733729    -0.80700
C263        C  0.23483584  0.83128846  0.68478927     0.93100
C264        C  0.17889172  0.74390616  0.67249451     0.93000
Mg265      Mg  0.30747783  0.76358016  0.76064829     1.58000
O266        O  0.32074538  0.76684510  0.80193049    -0.80700
O267        O  0.30006919  0.75914917  0.71858095    -0.74900
O268        O  0.22314024  0.81072582  0.68292554    -0.80700
O269        O  0.16786719  0.70061211  0.74174644    -0.82500
O270        O  0.27214973  0.68878748  0.81228162    -0.80800
C271        C  0.28331913  0.76633114  0.70348363     0.87400
O272        O  0.28612154  0.73050323  0.76898104    -0.87900
O273        O  0.27418588  0.78588895  0.76549853    -0.88000
O274        O  0.25844355  0.77261295  0.80086555    -0.75100
Mg275      Mg  0.23072779  0.76901869  0.69079159     1.58000
O276        O  0.25173560  0.83429990  0.70126524    -0.82400
H277        H  0.23953765  0.69056396  0.70388349    -0.06200
O278        O  0.23237183  0.72198518  0.78343540    -0.87700
H279        H  0.21089816  0.73595641  0.81050478    -0.06000
H280        H  0.31059007  0.70872929  0.75125244    -0.06200
C281        C  0.21316724  0.73226600  0.79078609     0.87400
C282        C  0.23388082  0.70934853  0.70847639     0.88000
C283        C  0.29159453  0.71143239  0.75728226     0.88000
H284        H  0.25843490  0.80891392  0.79020215    -0.06200
O285        O  0.22195019  0.80359696  0.74342609    -0.75200
Mg286      Mg  0.26576228  0.73046592  0.80371063     1.58000
H287        H  0.18682056  0.78978984  0.74433843    -0.06200
C288        C  0.17143607  0.68159429  0.75548797     0.93000
O289        O  0.24521471  0.66442286  0.79255600    -0.82400
C290        C  0.26169845  0.66767179  0.80940178     0.93100
O291        O  0.19558069  0.76033619  0.66906820    -0.82400
Mg292      Mg  0.26344860  0.80941723  0.73444394     1.58200
O293        O  0.19249265  0.67759988  0.76575310    -0.80700
O294        O  0.33022106  0.79825880  0.75116888    -0.82400
N295        N  0.49612984  0.96077838  0.74905016    -0.36300
N296        N  0.45988938  0.00040253  0.75391840    -0.56800
N297        N  0.50031306  0.03587018  0.76140404    -0.36300
N298        N  0.53652823  0.99582131  0.75869240    -0.56800
C299        C  0.47492910  0.94736602  0.75114473     0.27300
C300        C  0.51529032  0.94494587  0.75308811     0.27300
C301        C  0.48040703  0.05000504  0.76779847     0.27300
C302        C  0.52093499  0.04743520  0.77020184     0.27300
C303        C  0.44457862  0.98196383  0.74613743     0.35900
C304        C  0.44686169  0.02189091  0.75227486     0.35900
C305        C  0.54985468  0.97570413  0.75142333     0.35900
C306        C  0.55224358  0.01551131  0.75815076     0.35900
C307        C  0.48073235  0.92273645  0.75652600    -0.21600
C308        C  0.50620495  0.92121888  0.75775561    -0.21600
C309        C  0.48847724  0.07076840  0.78089423    -0.21600
C310        C  0.51402738  0.06912149  0.78245323    -0.21600
C311        C  0.42162270  0.99171577  0.73968992    -0.22600
C312        C  0.42308074  0.01703537  0.74348953    -0.22600
C313        C  0.57421119  0.98255981  0.74652708    -0.22600
C314        C  0.57571653  0.00778914  0.75072618    -0.22600
C315        C  0.45062861  0.95630619  0.74646477    -0.18000
C316        C  0.54075860  0.95096917  0.75086461    -0.18000
C317        C  0.54586316  0.04010587  0.76537934    -0.18000
C318        C  0.45537120  0.04540868  0.76075611    -0.18000
H319        H  0.46796904  0.90733133  0.75893216     0.14900
H320        H  0.51684411  0.90446074  0.76132594     0.14900
H321        H  0.47715390  0.08573504  0.78826724     0.14900
H322        H  0.52619968  0.08262061  0.79115050     0.14900
H323        H  0.40544124  0.98160352  0.73326618     0.13200
H324        H  0.40815811  0.03027696  0.74062870     0.13200
H325        H  0.58935248  0.97059444  0.74071354     0.13200
H326        H  0.59224578  0.01909129  0.74865461     0.13200
H327        H  0.49761357  0.97884128  0.74219975     0.26500
H328        H  0.50008881  0.02098634  0.74900372     0.26500
N329        N  0.26284067  0.53985289  0.99788828    -0.36300
N330        N  0.26049601  0.50035056  0.96071721    -0.56800
N331        N  0.25556508  0.46381997  0.00062754    -0.36300
N332        N  0.26051297  0.50255294  0.03795249    -0.56800
C333        C  0.26949664  0.55255089  0.97698255     0.27300
C334        C  0.26951749  0.55378672  0.01790576     0.27300
C335        C  0.25935739  0.44875335  0.98074293     0.27300
C336        C  0.25912408  0.44989673  0.02140749     0.27300
C337        C  0.25763159  0.52038715  0.94565999     0.35900
C338        C  0.25372599  0.48022079  0.94713434     0.35900
C339        C  0.25819186  0.52360752  0.05165474     0.35900
C340        C  0.25386032  0.48335544  0.05301722     0.35900
C341        C  0.28046631  0.57490921  0.98383554    -0.21600
C342        C  0.28038383  0.57573574  0.00961041    -0.21600
C343        C  0.26547240  0.42501394  0.98895316    -0.21600
C344        C  0.26535537  0.42573893  0.01462951    -0.21600
C345        C  0.24906859  0.51288267  0.92240038    -0.22600
C346        C  0.24669331  0.48742966  0.92331928    -0.22600
C347        C  0.25022682  0.51769141  0.07559515    -0.22600
C348        C  0.24748467  0.49221824  0.07644124    -0.22600
C349        C  0.26451620  0.54507549  0.95197464    -0.18000
C350        C  0.26456843  0.54791744  0.04335583    -0.18000
C351        C  0.25469570  0.45785213  0.04620852    -0.18000
C352        C  0.25520063  0.45529210  0.95551595    -0.18000
H353        H  0.28745368  0.58931856  0.97153928     0.14900
H354        H  0.28731572  0.59089917  0.02095717     0.14900
H355        H  0.26912648  0.40872625  0.97761164     0.14900
H356        H  0.26889943  0.41010512  0.02691806     0.14900
H357        H  0.24513077  0.52449654  0.90633945     0.13200
H358        H  0.24065863  0.47557362  0.90814427     0.13200
H359        H  0.24683101  0.53038992  0.09091862     0.13200
H360        H  0.24160937  0.48145198  0.09249737     0.13200
H361        H  0.25186298  0.52394321  0.99846786     0.26500
H362        H  0.24768903  0.48149244  0.00004564     0.26500
N363        N  0.75397070  0.45784270  0.99989539    -0.36300
N364        N  0.74592336  0.49535610  0.96163999    -0.56800
N365        N  0.73804631  0.53242317  0.00072892    -0.36300
N366        N  0.74289564  0.49408195  0.03912469    -0.56800
C367        C  0.75252446  0.44314288  0.97942625     0.27300
C368        C  0.75236932  0.44274892  0.02003777     0.27300
C369        C  0.73244882  0.54613405  0.98021577     0.27300
C370        C  0.73020060  0.54534141  0.02099710     0.27300
C371        C  0.75337562  0.47632961  0.94686915     0.35900
C372        C  0.74628905  0.51608932  0.94730041     0.35900
C373        C  0.75103315  0.47499982  0.05354789     0.35900
C374        C  0.74153281  0.51437172  0.05408853     0.35900
C375        C  0.75014122  0.41843222  0.98668405    -0.21600
C376        C  0.75005134  0.41818050  0.01229566    -0.21600
C377        C  0.72093696  0.56807395  0.98753907    -0.21600
C378        C  0.71948015  0.56755972  0.01322715    -0.21600
C379        C  0.75804390  0.48488358  0.92291328    -0.22600
C380        C  0.75365549  0.51009510  0.92319565    -0.22600
C381        C  0.75423451  0.48303451  0.07791848    -0.22600
C382        C  0.74819946  0.50793835  0.07827613    -0.22600
C383        C  0.75481629  0.45112822  0.95438025    -0.18000
C384        C  0.75485988  0.45022933  0.04520779    -0.18000
C385        C  0.73413461  0.53858873  0.04635162    -0.18000
C386        C  0.73878983  0.54012895  0.95519743    -0.18000
H387        H  0.74893255  0.40218354  0.97477764     0.14900
H388        H  0.74875092  0.40170087  0.02390481     0.14900
H389        H  0.71450727  0.58305343  0.97562007     0.14900
H390        H  0.71175206  0.58210065  0.02489171     0.14900
H391        H  0.76392394  0.47407418  0.90690253     0.13200
H392        H  0.75543526  0.52253352  0.90736679     0.13200
H393        H  0.76037959  0.47212829  0.09377466     0.13200
H394        H  0.74887940  0.51997091  0.09447353     0.13200
H395        H  0.75891055  0.47650354  0.00022291     0.26500
H396        H  0.74930558  0.51677675  0.00102178     0.26500
O397        O  0.72327938  0.78625120  0.77045141    -0.88000
C398        C  0.70577784  0.71188354  0.76452405     0.88000
Mg399      Mg  0.73352086  0.80926443  0.73934094     1.58100
O400        O  0.76570382  0.72394059  0.78828538    -0.87700
O401        O  0.73970653  0.77440619  0.80588190    -0.75100
C402        C  0.81647043  0.74303956  0.67429371     0.93100
O403        O  0.69674800  0.75872378  0.72454522    -0.74900
O404        O  0.79965320  0.75952445  0.67143148    -0.82400
Mg405      Mg  0.69006020  0.76395569  0.76659514     1.58000
C406        C  0.82540868  0.68224102  0.75984387     0.93000
O407        O  0.67752144  0.76816132  0.80783250    -0.80700
H408        H  0.78822083  0.73870051  0.81401037    -0.06000
C409        C  0.76211533  0.70921574  0.71342512     0.87900
O410        O  0.77510571  0.80311803  0.74735011    -0.75200
O411        O  0.71159577  0.73127841  0.77544182    -0.87900
O412        O  0.80484419  0.67952870  0.77140667    -0.80700
C413        C  0.73915363  0.67061558  0.81810224     0.93100
C414        C  0.68017108  0.75653857  0.82846378     0.93000
Mg415      Mg  0.80680457  0.73507205  0.73622632     1.58000
O416        O  0.81809265  0.73059211  0.69454681    -0.80700
O417        O  0.80161277  0.74043260  0.77858659    -0.74900
O418        O  0.72717783  0.69099564  0.82032528    -0.80700
O419        O  0.66709005  0.79813990  0.75672155    -0.82500
O420        O  0.77166925  0.81038433  0.68562963    -0.80800
C421        C  0.78524838  0.73426136  0.79454720     0.87400
O422        O  0.78602731  0.76851649  0.72862629    -0.87900
O423        O  0.77289415  0.71357251  0.73334332    -0.88000
O424        O  0.75725923  0.72640666  0.69778651    -0.75100
Mg425      Mg  0.73286148  0.73241245  0.80962598     1.58000
O426        O  0.75446268  0.66739674  0.80018671    -0.82400
H427        H  0.73878784  0.81036099  0.79420044    -0.06200
O428        O  0.73208115  0.77688827  0.71550631    -0.87700
H429        H  0.71055094  0.76141684  0.68937563    -0.06000
H430        H  0.81039545  0.78971232  0.74711171    -0.06200
C431        C  0.71301593  0.76587294  0.70890804     0.87400
C432        C  0.73376198  0.79124194  0.79033843     0.88000
C433        C  0.79141641  0.78720548  0.74097328     0.88000
H434        H  0.75625214  0.69037229  0.70940346    -0.06200
O435        O  0.72192444  0.69567112  0.75861008    -0.75200
Mg436      Mg  0.76504169  0.76859983  0.69437758     1.58000
H437        H  0.68658598  0.70894858  0.75931120    -0.06200
C438        C  0.67110659  0.81673170  0.74248132     0.93000
O439        O  0.74484506  0.83386136  0.70672544    -0.82400
C440        C  0.76083411  0.83121450  0.68935352     0.93100
O441        O  0.69819079  0.74150698  0.83188145    -0.82400
Mg442      Mg  0.76380978  0.69079807  0.76565340     1.58200
O443        O  0.69249300  0.82088146  0.73295104    -0.80700
O444        O  0.82887116  0.70007657  0.74456874    -0.82400
N445        N  0.75219432  0.95968314  0.50147459    -0.36300
N446        N  0.75321986  0.99787962  0.46237262    -0.56800
N447        N  0.74705598  0.03632427  0.50037854    -0.36300
N448        N  0.74923427  0.99871291  0.53948046    -0.56800
C449        C  0.75861027  0.94567713  0.48144395     0.27300
C450        C  0.75755228  0.94622659  0.52222881     0.27300
C451        C  0.75104828  0.05082134  0.48007378     0.27300
C452        C  0.74831183  0.05121280  0.52073046     0.27300
C453        C  0.75176748  0.97733762  0.44780264     0.35900
C454        C  0.74938196  0.01773692  0.44721924     0.35900
C455        C  0.74740423  0.97844433  0.55439597     0.35900
C456        C  0.74337065  0.01866079  0.55377573     0.35900
C457        C  0.76759749  0.92282737  0.48955503    -0.21600
C458        C  0.76700422  0.92320220  0.51525161    -0.21600
C459        C  0.75467296  0.07528619  0.48762733    -0.21600
C460        C  0.75297792  0.07552440  0.51324589    -0.21600
C461        C  0.74735168  0.98423216  0.42322484    -0.22600
C462        C  0.74590699  0.00979263  0.42285230    -0.22600
C463        C  0.74058806  0.98559322  0.57832770    -0.22600
C464        C  0.73799168  0.01103170  0.57791812    -0.22600
C465        C  0.75578348  0.95252259  0.45600748    -0.18000
C466        C  0.75338317  0.95373915  0.54728845    -0.18000
C467        C  0.74396025  0.04381147  0.54576640    -0.18000
C468        C  0.74970929  0.04301791  0.45483523    -0.18000
H469        H  0.77401299  0.90747415  0.47813899     0.14900
H470        H  0.77282536  0.90816554  0.52740980     0.14900
H471        H  0.75782863  0.09141370  0.47588743     0.14900
H472        H  0.75464672  0.09184570  0.52499359     0.14900
H473        H  0.74549343  0.97211906  0.40718014     0.13200
H474        H  0.74266746  0.02121884  0.40649878     0.13200
H475        H  0.73788760  0.97372438  0.59446414     0.13200
H476        H  0.73292326  0.02259797  0.59367225     0.13200
H477        H  0.74249956  0.97638883  0.50091573     0.26500
H478        H  0.74090336  0.01804274  0.50016233     0.26500
O479        O  0.73678907  0.28271058  0.22104338    -0.88000
C480        C  0.73991694  0.20801709  0.20509355     0.88000
Mg481      Mg  0.76935757  0.30415010  0.22997050     1.58100
O482        O  0.71673231  0.22135033  0.26533826    -0.87700
O483        O  0.70161897  0.27233988  0.23876026    -0.75100
C484        C  0.82919850  0.24031576  0.31720371     0.93100
O485        O  0.78072000  0.25289550  0.19433001    -0.74900
O486        O  0.83357831  0.25494468  0.29899335    -0.82400
Mg487      Mg  0.73887115  0.26004548  0.18787051     1.58000
C488        C  0.74416770  0.18090549  0.32641328     0.93000
O489        O  0.69746551  0.26556983  0.17595030    -0.80700
H490        H  0.69091817  0.23673661  0.28729697    -0.06000
C491        C  0.79092018  0.20444141  0.26313321     0.87900
O492        O  0.76099116  0.30097124  0.27198751    -0.75200
O493        O  0.72917790  0.22770725  0.21027001    -0.87900
O494        O  0.73318646  0.17708888  0.30561352    -0.80700
C495        C  0.68554770  0.16840748  0.24048716     0.93100
C496        C  0.67667288  0.25463549  0.17984880     0.93000
Mg497      Mg  0.76793425  0.23328103  0.30626172     1.58000
O498        O  0.80847177  0.22901627  0.31942030    -0.80700
O499        O  0.72610313  0.23920169  0.30068723    -0.74900
O500        O  0.68275867  0.18907960  0.22887518    -0.80700
O501        O  0.74967719  0.29426218  0.16422852    -0.82500
O502        O  0.82266543  0.30463106  0.26801386    -0.80800
C503        C  0.71032572  0.23223627  0.28457195     0.87400
O504        O  0.77714158  0.26551707  0.28403781    -0.87900
O505        O  0.77099463  0.21020446  0.27305698    -0.88000
O506        O  0.80718447  0.22071530  0.25767180    -0.75100
Mg507      Mg  0.69572412  0.23038830  0.23271840     1.58000
O508        O  0.70412047  0.16441055  0.25473647    -0.82400
H509        H  0.71453845  0.30781717  0.23717267    -0.06200
O510        O  0.79093825  0.27040406  0.22984161    -0.87700
H511        H  0.81586201  0.25314571  0.20818500    -0.06000
H512        H  0.76047573  0.28880910  0.30790503    -0.06200
C513        C  0.79674474  0.25883505  0.21074042     0.87400
C514        C  0.71752678  0.28852750  0.23217063     0.88000
C515        C  0.76623448  0.28520348  0.28889847     0.88000
H516        H  0.79437019  0.18514132  0.25848321    -0.06200
O517        O  0.74562917  0.19220144  0.22180508    -0.75200
Mg518      Mg  0.81171325  0.26300112  0.26340392     1.58000
H519        H  0.74520561  0.20447996  0.18593459    -0.06200
C520        C  0.76619774  0.31090955  0.16805478     0.93000
O521        O  0.80345946  0.32726931  0.23916782    -0.82400
C522        C  0.82072981  0.32457005  0.25515818     0.93100
O523        O  0.67356522  0.24028005  0.19847422    -0.82400
Mg524      Mg  0.73869983  0.18773236  0.26402039     1.58200
O525        O  0.77737239  0.31259837  0.18889082    -0.80700
O526        O  0.75871325  0.19930956  0.32938753    -0.82400
N527        N  0.00007401  0.54184804  0.24905893    -0.36300
N528        N  0.03792980  0.50385863  0.25111981    -0.56800
N529        N  0.99884762  0.46567942  0.25149063    -0.36300
N530        N  0.96094067  0.50426606  0.25140279    -0.56800
C531        C  0.02045666  0.55585842  0.25369439     0.27300
C532        C  0.98001542  0.55612430  0.25419219     0.27300
C533        C  0.01907398  0.45159432  0.25693974     0.27300
C534        C  0.97834704  0.45179628  0.25650914     0.27300
C535        C  0.05263049  0.52368120  0.24593607     0.35900
C536        C  0.05216016  0.48328389  0.24828654     0.35900
C537        C  0.94694989  0.52465005  0.24646104     0.35900
C538        C  0.94609873  0.48419958  0.24798536     0.35900
C539        C  0.01326574  0.57919316  0.26216573    -0.21600
C540        C  0.98770869  0.57938348  0.26241622    -0.21600
C541        C  0.01131546  0.42832086  0.26511355    -0.21600
C542        C  0.98570941  0.42842829  0.26479684    -0.21600
C543        C  0.07636966  0.51566739  0.23989321    -0.22600
C544        C  0.07614108  0.49010304  0.24162166    -0.22600
C545        C  0.92301714  0.51755133  0.24011345    -0.22600
C546        C  0.92241311  0.49194806  0.24127876    -0.22600
C547        C  0.04520946  0.54890801  0.24818012    -0.18000
C548        C  0.95508132  0.54958519  0.24922793    -0.18000
C549        C  0.95325613  0.45912613  0.25239371    -0.18000
C550        C  0.04432767  0.45859088  0.25339683    -0.18000
H551        H  0.02519912  0.59469051  0.26700245     0.14900
H552        H  0.97609198  0.59506245  0.26749913     0.14900
H553        H  0.02289357  0.41270594  0.27047636     0.14900
H554        H  0.97391706  0.41289482  0.26986216     0.14900
H555        H  0.09230998  0.52702078  0.23514318     0.13200
H556        H  0.09189882  0.47795399  0.23846898     0.13200
H557        H  0.90749647  0.52957507  0.23556962     0.13200
H558        H  0.90630686  0.48041055  0.23773852     0.13200
H559        H  0.99978613  0.52502203  0.23946306     0.26500
H560        H  0.99909036  0.48276563  0.24240590     0.26500
O561        O  0.23337568  0.71037453  0.24424237    -0.88000
C562        C  0.24133870  0.76277248  0.19062094     0.88000
Mg563      Mg  0.20844089  0.71612483  0.27503995     1.58100
O564        O  0.29073538  0.75830045  0.23337400    -0.87700
O565        O  0.27256651  0.70220583  0.23749613    -0.75100
C566        C  0.23514097  0.82769271  0.32221326     0.93100
O567        O  0.19275502  0.74807008  0.22314936    -0.74900
O568        O  0.21692020  0.81278806  0.31934619    -0.82400
Mg569      Mg  0.21801213  0.71655015  0.20781220     1.58000
C570        C  0.32161606  0.82372487  0.26278589     0.93000
O571        O  0.24038194  0.68472476  0.18815271    -0.80700
H572        H  0.31792316  0.73850989  0.24934683    -0.06000
C573        C  0.24163900  0.81470665  0.24892638     0.87900
O574        O  0.24083243  0.72794707  0.30035095    -0.75200
O575        O  0.24719029  0.74295479  0.20091009    -0.87900
O576        O  0.31734782  0.81233359  0.24237920    -0.80700
C577        C  0.31199370  0.77341166  0.17183210     0.93100
C578        C  0.26099747  0.68176457  0.17661892     0.93000
Mg579      Mg  0.27597406  0.79391596  0.28869018     1.58000
O580        O  0.25505738  0.82567742  0.30938034    -0.80700
O581        O  0.30069178  0.76272720  0.27275995    -0.74900
O582        O  0.30084037  0.75262232  0.17439130    -0.80700
O583        O  0.18717995  0.68840178  0.21569512    -0.82500
O584        O  0.19228973  0.75881562  0.32207496    -0.80800
C585        C  0.30383387  0.75272749  0.25149489     0.87400
O586        O  0.24617973  0.76804158  0.29492290    -0.87900
O587        O  0.26012207  0.80151877  0.25243876    -0.88000
O588        O  0.22120859  0.81031064  0.25992215    -0.75100
Mg589      Mg  0.28454111  0.72919232  0.20643577     1.58000
O590        O  0.31009589  0.79073493  0.18791474    -0.82400
H591        H  0.25121716  0.68297665  0.26213620    -0.06200
O592        O  0.20223899  0.75383892  0.26257295    -0.87700
H593        H  0.17549363  0.77336176  0.24546755    -0.06000
H594        H  0.26611481  0.74841443  0.31955448    -0.06200
C595        C  0.18952323  0.75899571  0.24401332     0.87400
C596        C  0.25210300  0.69773457  0.24840187     0.88000
C597        C  0.25149345  0.74837212  0.30570853     0.88000
H598        H  0.24269489  0.82988987  0.23567472    -0.06200
O599        O  0.25163345  0.78335409  0.19622031    -0.75200
Mg600      Mg  0.20909454  0.78258859  0.29031064     1.58000
H601        H  0.22648541  0.76271302  0.17702296    -0.06200
C602        C  0.17208825  0.68697157  0.23399271     0.93000
O603        O  0.18247140  0.72138862  0.30766821    -0.82400
C604        C  0.18074431  0.73816514  0.32425781     0.93100
O605        O  0.27854762  0.69756410  0.17873195    -0.82400
Mg606      Mg  0.28425753  0.79587032  0.22103442     1.58200
O607        O  0.17498015  0.70000495  0.25364258    -0.80700
O608        O  0.30768735  0.82108040  0.28183044    -0.82400
N609        N  0.26195391  0.04146802  0.50103475    -0.36300
N610        N  0.25576705  0.00250764  0.46377649    -0.56800
N611        N  0.24612658  0.96650465  0.50353251    -0.36300
N612        N  0.24994382  0.00602423  0.54072359    -0.56800
C613        C  0.26029435  0.05523085  0.47986762     0.27300
C614        C  0.25756021  0.05701978  0.52044903     0.27300
C615        C  0.24038179  0.95251178  0.48325746     0.27300
C616        C  0.23775784  0.95422795  0.52403312     0.27300
C617        C  0.26435703  0.02095973  0.44884100     0.35900
C618        C  0.25602801  0.98137467  0.45002375     0.35900
C619        C  0.25674206  0.02578306  0.55487305     0.35900
C620        C  0.24845036  0.98616856  0.55628902     0.35900
C621        C  0.25492964  0.07978056  0.48595035    -0.21600
C622        C  0.25320989  0.08090536  0.51152360    -0.21600
C623        C  0.22847695  0.93092637  0.49103379    -0.21600
C624        C  0.22686097  0.93199147  0.51670186    -0.21600
C625        C  0.27014230  0.01152577  0.42546867    -0.22600
C626        C  0.26480355  0.98646780  0.42618655    -0.22600
C627        C  0.25940470  0.01848586  0.57956784    -0.22600
C628        C  0.25406302  0.99344369  0.58048270    -0.22600
C629        C  0.26454992  0.04654913  0.45525917    -0.18000
C630        C  0.25885067  0.05062308  0.54608777    -0.18000
C631        C  0.24088909  0.96183378  0.54925394    -0.18000
C632        C  0.24683938  0.95793765  0.45808144    -0.18000
H633        H  0.25256376  0.09534012  0.47328616     0.14900
H634        H  0.24932197  0.09749300  0.52233637     0.14900
H635        H  0.22188538  0.91579435  0.47944448     0.14900
H636        H  0.21873865  0.91787318  0.52862831     0.14900
H637        H  0.27688194  0.02175923  0.40940280     0.13200
H638        H  0.26677456  0.97356106  0.41078480     0.13200
H639        H  0.26438721  0.03004276  0.59534550     0.13200
H640        H  0.25414848  0.98194536  0.59710661     0.13200
H641        H  0.26843246  0.02325988  0.50234560     0.26500
H642        H  0.25741647  0.98215344  0.50359897     0.26500
O643        O  0.26458748  0.25440249  0.79621102    -0.88000
C644        C  0.25228149  0.31333650  0.74913828     0.88000
Mg645      Mg  0.29158873  0.22553450  0.78912636     1.58100
O646        O  0.20513781  0.26785141  0.74930879    -0.87700
O647        O  0.22497822  0.25908851  0.80448610    -0.75100
C648        C  0.26696216  0.18990330  0.67293758     0.93100
O649        O  0.30329397  0.28125981  0.75959591    -0.74900
O650        O  0.28530768  0.19125664  0.68798414    -0.82400
Mg651      Mg  0.27733830  0.29216270  0.79197098     1.58000
C652        C  0.17765691  0.24270568  0.68182710     0.93000
O653        O  0.25519316  0.30693547  0.82540106    -0.80700
H654        H  0.17929599  0.24830543  0.76763795    -0.06000
C655        C  0.25749103  0.26035518  0.69386877     0.87900
O656        O  0.26105205  0.19938548  0.77454780    -0.75200
O657        O  0.24736643  0.29939632  0.76678787    -0.87900
O658        O  0.18138149  0.26296833  0.69350293    -0.80700
C659        C  0.18020997  0.32824329  0.73911894     0.93100
C660        C  0.23490238  0.31855891  0.82916062     0.93000
Mg661      Mg  0.22485488  0.21708170  0.71029816     1.58000
O662        O  0.24670102  0.20138510  0.67719718    -0.80700
O663        O  0.19901187  0.22813762  0.74246097    -0.74900
O664        O  0.19094819  0.32465877  0.76011606    -0.80700
O665        O  0.30897111  0.28564923  0.81859093    -0.82500
O666        O  0.31137195  0.18348990  0.74231736    -0.80800
C667        C  0.19365874  0.24835469  0.75350394     0.87400
O668        O  0.25519422  0.20970599  0.73551930    -0.87900
O669        O  0.23874292  0.25469936  0.70596532    -0.88000
O670        O  0.27822201  0.24955446  0.69740833    -0.75100
Mg671      Mg  0.21055824  0.29187920  0.78064684     1.58000
O672        O  0.18468135  0.31455650  0.72030721    -0.82400
H673        H  0.24695080  0.23338296  0.82146998    -0.06200
O674        O  0.29814860  0.24132557  0.75262918    -0.87700
H675        H  0.32316933  0.26169958  0.73402659    -0.06000
H676        H  0.23700260  0.18142934  0.75156724    -0.06200
C677        C  0.30898249  0.26120327  0.74833016     0.87400
C678        C  0.24578665  0.24843264  0.80807545     0.88000
C679        C  0.25064127  0.19608631  0.75354497     0.88000
H680        H  0.25636474  0.27530115  0.68035395    -0.06200
O681        O  0.24269947  0.31006618  0.72778589    -0.75200
Mg682      Mg  0.29218167  0.21677226  0.72143665     1.58000
H683        H  0.26571750  0.32808786  0.75171829    -0.06200
C684        C  0.32499237  0.26836370  0.82040490     0.93000
O685        O  0.31945925  0.19453050  0.78149371    -0.82400
C686        C  0.32272195  0.17993583  0.76305026     0.93100
O687        O  0.21683254  0.31741543  0.81384377    -0.82400
Mg688      Mg  0.21243269  0.28402767  0.71299031     1.58200
O689        O  0.32299879  0.24798603  0.80830107    -0.80700
O690        O  0.19244448  0.22427155  0.68371160    -0.82400
N691        N  0.99830236  0.46263401  0.74069905    -0.36300
N692        N  0.95904682  0.50010714  0.73862066    -0.56800
N693        N  0.99621339  0.53862011  0.74284154    -0.36300
N694        N  0.03547236  0.50165689  0.74292927    -0.56800
C695        C  0.97866357  0.44874909  0.73331285     0.27300
C696        C  0.01912789  0.44961435  0.73510775     0.27300
C697        C  0.97588663  0.55237629  0.73722751     0.27300
C698        C  0.01634467  0.55321662  0.73910484     0.27300
C699        C  0.94534109  0.47941034  0.74257403     0.35900
C700        C  0.94409404  0.51965598  0.74389022     0.35900
C701        C  0.05011720  0.48164911  0.74721029     0.35900
C702        C  0.04896164  0.52194923  0.74914476     0.35900
C703        C  0.98707481  0.42657310  0.72304526    -0.21600
C704        C  0.01264752  0.42711719  0.72418069    -0.21600
C705        C  0.98315907  0.57600091  0.72970208    -0.21600
C706        C  0.00874612  0.57648332  0.73072094    -0.21600
C707        C  0.92152707  0.48584568  0.75015240    -0.22600
C708        C  0.92068562  0.51139061  0.75080025    -0.22600
C709        C  0.07308881  0.48922263  0.75611692    -0.22600
C710        C  0.07232559  0.51479689  0.75743970    -0.22600
C711        C  0.95339252  0.45494695  0.73718533    -0.18000
C712        C  0.04367972  0.45689568  0.74107933    -0.18000
C713        C  0.04104871  0.54683167  0.74556371    -0.18000
C714        C  0.95107826  0.54487377  0.74150171    -0.18000
H715        H  0.97593227  0.41147144  0.71571037     0.14900
H716        H  0.02504594  0.41249845  0.71792982     0.14900
H717        H  0.97126470  0.59146551  0.72461373     0.14900
H718        H  0.02038661  0.59241415  0.72658940     0.14900
H719        H  0.90622946  0.47343878  0.75436796     0.13200
H720        H  0.90465822  0.52257439  0.75569383     0.13200
H721        H  0.08884051  0.47756344  0.76082165     0.13200
H722        H  0.08739523  0.52675640  0.76338294     0.13200
H723        H  0.99740276  0.47867744  0.75154529     0.26500
H724        H  0.99615173  0.52166509  0.75224381     0.26500
N725        N  0.49895878  0.26753506  0.03899815    -0.36300
N726        N  0.53779012  0.26300843  0.00079321    -0.56800
N727        N  0.50003681  0.26742066  0.96272897    -0.36300
N728        N  0.46115117  0.26955992  0.00077142    -0.56800
C729        C  0.51874903  0.26069935  0.05302649     0.27300
C730        C  0.47828023  0.26375107  0.05296499     0.27300
C731        C  0.51995083  0.26037018  0.94895205     0.27300
C732        C  0.47949433  0.26298994  0.94888309     0.27300
C733        C  0.55198245  0.26694005  0.02124853     0.35900
C734        C  0.55251131  0.26753548  0.98077372     0.35900
C735        C  0.44696105  0.27528924  0.02084061     0.35900
C736        C  0.44756770  0.27513903  0.98028255     0.35900
C737        C  0.51063006  0.25258405  0.07622037    -0.21600
C738        C  0.48510855  0.25434674  0.07613732    -0.21600
C739        C  0.51195923  0.25108401  0.92617063    -0.21600
C740        C  0.48640804  0.25283390  0.92608135    -0.21600
C741        C  0.57587269  0.27357802  0.01423334    -0.22600
C742        C  0.57616057  0.27416202  0.98860647    -0.22600
C743        C  0.42422189  0.28466331  0.01304383    -0.22600
C744        C  0.42456096  0.28445189  0.98732397    -0.22600
C745        C  0.54399771  0.26361488  0.04617917    -0.18000
C746        C  0.45361439  0.27006593  0.04593225    -0.18000
C747        C  0.45496603  0.26996482  0.95545271    -0.18000
C748        C  0.54509698  0.26451629  0.95557382    -0.18000
H749        H  0.52195393  0.24633319  0.09171761     0.14900
H750        H  0.47301865  0.24955377  0.09157239     0.14900
H751        H  0.52340520  0.24443973  0.91093063     0.14900
H752        H  0.47433495  0.24774805  0.91074435     0.14900
H753        H  0.59143366  0.27776783  0.02632812     0.13200
H754        H  0.59201331  0.27895355  0.97712811     0.13200
H755        H  0.40881069  0.29048551  0.02466538     0.13200
H756        H  0.40947434  0.29011580  0.97520390     0.13200
H757        H  0.49984572  0.27705891  0.02210545     0.26500
H758        H  0.50061640  0.27782773  0.97910277     0.26500
N759        N  0.45837820  0.75989628  0.99945165    -0.36300
N760        N  0.49863265  0.75649938  0.96295583    -0.56800
N761        N  0.53405754  0.75362194  0.00379615    -0.36300
N762        N  0.49369059  0.75435728  0.04032038    -0.56800
C763        C  0.44523209  0.75592839  0.97825787     0.27300
C764        C  0.44269836  0.75628608  0.01891735     0.27300
C765        C  0.54947402  0.74964137  0.98419179     0.27300
C766        C  0.54681650  0.74802841  0.02484709     0.27300
C767        C  0.47954819  0.76172144  0.94734225     0.35900
C768        C  0.51984451  0.75976643  0.94973397     0.35900
C769        C  0.47308989  0.75951808  0.05388009     0.35900
C770        C  0.51317660  0.75575844  0.05621839     0.35900
C771        C  0.42092364  0.74977186  0.98442369    -0.21600
C772        C  0.41928613  0.75021892  0.01003399    -0.21600
C773        C  0.57232893  0.74142601  0.99291901    -0.21600
C774        C  0.57066823  0.74043790  0.01851279    -0.21600
C775        C  0.48867069  0.76807457  0.92397131    -0.22600
C776        C  0.51417802  0.76679258  0.92546938    -0.22600
C777        C  0.47942671  0.76344380  0.07865369    -0.22600
C778        C  0.50481142  0.76101548  0.08014587    -0.22600
C779        C  0.45400503  0.75935980  0.95349026    -0.18000
C780        C  0.44852360  0.75970197  0.04444131    -0.18000
C781        C  0.53838766  0.75185774  0.04963878    -0.18000
C782        C  0.54415895  0.75506710  0.95883676    -0.18000
H783        H  0.40577160  0.74571200  0.97177637     0.34900
H784        H  0.40269886  0.74653944  0.02087733     0.14900
H785        H  0.58874690  0.73712537  0.98205317     0.14900
H786        H  0.58559940  0.73526197  0.03101939     0.14900
H787        H  0.47804568  0.77288022  0.90749203     0.13200
H788        H  0.52705244  0.77037530  0.91034579     0.13200
H789        H  0.46705426  0.76756202  0.09406034     0.13200
H790        H  0.51583839  0.76292753  0.09693979     0.13200
H791        H  0.47602279  0.76758121  0.00054061     0.26500
H792        H  0.51712899  0.76276830  0.00308125     0.26500
C793        C  0.43595221  0.27101631  0.93534290    -0.11600
C794        C  0.43501751  0.29108918  0.91836728     0.03800
C795        C  0.41701753  0.29141883  0.89950440    -0.12200
C796        C  0.40018093  0.27167003  0.89695101     0.18700
C797        C  0.40151539  0.25128805  0.91348789    -0.09200
C798        C  0.41914228  0.25121652  0.93270668    -0.02200
H799        H  0.41625078  0.30702186  0.88666498     0.05200
C800        C  0.38147503  0.27250248  0.87680358     0.20700
H801        H  0.42003521  0.23550472  0.94540226     0.10400
C802        C  0.38726118  0.26239377  0.85336792    -0.15600
C803        C  0.36953808  0.26196308  0.83421312     0.03400
C804        C  0.34543897  0.27135105  0.83860298    -0.10900
C805        C  0.34014457  0.28255557  0.86174554    -0.00900
C806        C  0.35795189  0.28324504  0.88073979    -0.06100
H807        H  0.40562393  0.25479659  0.85000266     0.06400
H808        H  0.32182109  0.29013112  0.86538055     0.09800
Br809      Br  0.38006449  0.22295537  0.91005116    -0.05800
Br810      Br  0.45808755  0.31825654  0.92011158    -0.02700
Br811      Br  0.37967252  0.24997225  0.80203385     0.00100
Br812      Br  0.34925677  0.29863247  0.91188617    -0.04200
C813        C  0.06388671  0.43805243  0.73950629    -0.11600
C814        C  0.06689610  0.41960086  0.75798284     0.03800
C815        C  0.08677555  0.40286043  0.75644771    -0.12200
C816        C  0.10363213  0.40395545  0.73647954     0.18700
C817        C  0.10013937  0.42184461  0.71753607    -0.09200
C818        C  0.08051667  0.43890388  0.71930965    -0.02200
H819        H  0.08911213  0.38888074  0.77087861     0.05200
C820        C  0.12437253  0.38587652  0.73571279     0.20700
H821        H  0.07816327  0.45288598  0.70488666     0.10400
C822        C  0.12249131  0.36501783  0.72016612    -0.15600
C823        C  0.14046531  0.34615555  0.72080235     0.03400
C824        C  0.16133170  0.34835455  0.73685654    -0.10900
C825        C  0.16319660  0.36950448  0.75223215    -0.00900
C826        C  0.14487642  0.38805631  0.75187264    -0.06100
H827        H  0.10637461  0.36291830  0.70821387     0.06400
H828        H  0.17879153  0.37147371  0.76487212     0.09800
Br829      Br  0.12174733  0.42378817  0.68910802    -0.05800
Br830      Br  0.04452593  0.41674220  0.78573112    -0.02700
Br831      Br  0.13354856  0.31683755  0.70135536     0.00100
Br832      Br  0.14827379  0.41582328  0.77415175    -0.04200
C833        C  0.26813288  0.17257684  0.65119500    -0.11600
C834        C  0.25003520  0.17255032  0.63189056     0.03800
C835        C  0.24926094  0.15287559  0.61470146    -0.12200
C836        C  0.26617750  0.13301771  0.61608371     0.18700
C837        C  0.28510991  0.13379228  0.63426324    -0.09200
C838        C  0.28597733  0.15339162  0.65146445    -0.02200
H839        H  0.23514453  0.15291698  0.60026894     0.05200
C840        C  0.26394935  0.11183497  0.59831586     0.20700
H841        H  0.30004958  0.15285721  0.66591905     0.10400
C842        C  0.28364257  0.10672110  0.58189637    -0.15600
C843        C  0.28260406  0.08649484  0.56545361     0.03400
C844        C  0.26119846  0.07134115  0.56457104    -0.10900
C845        C  0.24132350  0.07662613  0.58073068    -0.00900
C846        C  0.24261624  0.09650054  0.59765340    -0.06100
H847        H  0.30008305  0.11837329  0.58209877     0.06400
H848        H  0.22476008  0.06515992  0.58020794     0.09800
Br849      Br  0.30926470  0.10766134  0.63770622    -0.05800
Br850      Br  0.22585034  0.19861802  0.62738019    -0.02700
Br851      Br  0.31126163  0.07986533  0.54517786     0.00100
Br852      Br  0.21516919  0.10116436  0.62009551    -0.04200
C853        C  0.32957723  0.77633035  0.15079058    -0.11600
C854        C  0.32481060  0.76605065  0.12703515     0.03800
C855        C  0.34391704  0.76459541  0.10932135    -0.12200
C856        C  0.36787303  0.77332191  0.11483163     0.18700
C857        C  0.37220228  0.78513764  0.13792056    -0.09200
C858        C  0.35310104  0.78662821  0.15562174    -0.02200
H859        H  0.34021384  0.75618312  0.09131637     0.05200
C860        C  0.38817821  0.76949722  0.09651113     0.20700
H861        H  0.35710372  0.79459545  0.17377246     0.10400
C862        C  0.39776449  0.79002878  0.08345311    -0.15600
C863        C  0.41701190  0.78699399  0.06610770     0.03400
C864        C  0.42757816  0.76327335  0.06226165    -0.10900
C865        C  0.41777803  0.74266748  0.07502087    -0.00900
C866        C  0.39790890  0.74554324  0.09169710    -0.06100
H867        H  0.39001375  0.80841220  0.08654745     0.06400
H868        H  0.42541332  0.72427474  0.07171722     0.09800
Br869      Br  0.40430589  0.79789626  0.14687862    -0.05800
Br870      Br  0.29244860  0.75430989  0.11764888    -0.02700
Br871      Br  0.42786055  0.81556976  0.04755359     0.00100
Br872      Br  0.38461066  0.71621316  0.10728395    -0.04200
C873        C  0.23385454  0.84720816  0.34189390    -0.11600
C874        C  0.22525025  0.84163211  0.36624584     0.03800
C875        C  0.22576580  0.85992540  0.38495135    -0.12200
C876        C  0.23518320  0.88379227  0.38007635     0.18700
C877        C  0.24409014  0.88933536  0.35596080    -0.09200
C878        C  0.24336103  0.87116104  0.33711706    -0.02200
H879        H  0.21953208  0.85526608  0.40362682     0.05200
C880        C  0.23727480  0.90211591  0.40075181     0.20700
H881        H  0.25054183  0.87566131  0.31875053     0.10400
C882        C  0.25921006  0.90287832  0.41490783    -0.15600
C883        C  0.26235512  0.92059513  0.43386988     0.03400
C884        C  0.24343542  0.93804452  0.43888494    -0.10900
C885        C  0.22128706  0.93702471  0.42501943    -0.00900
C886        C  0.21805670  0.91913627  0.40616946    -0.06100
H887        H  0.27405755  0.88980250  0.41098019     0.06400
H888        H  0.20656204  0.95028081  0.42879274     0.09800
Br889      Br  0.25820541  0.92128145  0.34835307    -0.05800
Br890      Br  0.21537314  0.80858760  0.37589811    -0.02700
Br891      Br  0.29296749  0.92070280  0.45216830     0.00100
Br892      Br  0.18727941  0.91864504  0.38812908    -0.04200
C893        C  0.15195323  0.66802868  0.23356128    -0.11600
C894        C  0.12911995  0.67134321  0.24629521     0.03800
C895        C  0.11214991  0.65158889  0.24793856    -0.12200
C896        C  0.11766210  0.62823683  0.23762216     0.18700
C897        C  0.14025842  0.62487489  0.22484037    -0.09200
C898        C  0.15698569  0.64473771  0.22260239    -0.02200
H899        H  0.09470472  0.65432196  0.25769010     0.05200
C900        C  0.09955728  0.60764991  0.24037750     0.20700
H901        H  0.17455216  0.64156609  0.21323824     0.10400
C902        C  0.08018831  0.60543681  0.22304321    -0.15600
C903        C  0.06248767  0.58644325  0.22527438     0.03400
C904        C  0.06408544  0.56910340  0.24509420    -0.10900
C905        C  0.08343796  0.57148298  0.26254409    -0.00900
C906        C  0.10105760  0.59059887  0.26033374    -0.06100
H907        H  0.07880970  0.61860541  0.20774893     0.06400
H908        H  0.08468404  0.55854769  0.27804266     0.09800
Br909      Br  0.14949003  0.59317025  0.21113820    -0.05800
Br910      Br  0.11976113  0.70231081  0.26160949    -0.02700
Br911      Br  0.03656336  0.58498398  0.20068241     0.00100
Br912      Br  0.12658972  0.59311721  0.28518243    -0.04200
C913        C  0.65585697  0.25790639  0.16164412    -0.11600
C914        C  0.63518193  0.24142988  0.16083083     0.03800
C915        C  0.61711849  0.24413641  0.14226765    -0.12200
C916        C  0.61919893  0.26240839  0.12371760     0.18700
C917        C  0.63932027  0.27918840  0.12463787    -0.09200
C918        C  0.65731815  0.27690077  0.14347969    -0.02200
H919        H  0.60159456  0.23127523  0.14180974     0.05200
C920        C  0.60047833  0.26290133  0.10331523     0.20700
H921        H  0.67284880  0.28974058  0.14351220     0.10400
C922        C  0.58482625  0.28367896  0.10054354    -0.15600
C923        C  0.56644517  0.28416564  0.08202249     0.03400
C924        C  0.56313983  0.26345524  0.06623649    -0.10900
C925        C  0.57875763  0.24270166  0.06892246    -0.00900
C926        C  0.59738944  0.24233000  0.08716326    -0.06100
H927        H  0.58692476  0.29956797  0.11282815     0.06400
H928        H  0.57658080  0.22685300  0.05659266     0.09800
Br929      Br  0.64390578  0.30453009  0.09973502    -0.05800
Br930      Br  0.63066267  0.21338580  0.18282497    -0.02700
Br931      Br  0.54679952  0.31377605  0.07825393     0.00100
Br932      Br  0.61880902  0.21371606  0.08852781    -0.04200
C933        C  0.93334461  0.43964412  0.25351434    -0.11600
C934        C  0.92275439  0.42961794  0.23163294     0.03800
C935        C  0.90379632  0.41172319  0.23329411    -0.12200
C936        C  0.89527388  0.40319891  0.25659851     0.18700
C937        C  0.90618081  0.41288420  0.27848131    -0.09200
C938        C  0.92482328  0.43112236  0.27682173    -0.02200
H939        H  0.89585947  0.40418481  0.21631345     0.05200
C940        C  0.87566805  0.38360636  0.25765005     0.20700
H941        H  0.93284504  0.43859888  0.29378676     0.10400
C942        C  0.88205344  0.35939611  0.26519547    -0.15600
C943        C  0.86446490  0.34008314  0.26529184     0.03400
C944        C  0.83958308  0.34484468  0.25789791    -0.10900
C945        C  0.83324819  0.36928704  0.25064435    -0.00900
C946        C  0.85096394  0.38847118  0.25040274    -0.06100
H947        H  0.90108672  0.35534892  0.27044168     0.06400
H948        H  0.81443650  0.37349661  0.24478068     0.09800
Br949      Br  0.89596012  0.40195292  0.31102576    -0.05800
Br950      Br  0.93393348  0.43959251  0.19911234    -0.02700
Br951      Br  0.87660260  0.30741721  0.27364288     0.00100
Br952      Br  0.84050524  0.42106773  0.24006223    -0.04200
C953        C  0.74781789  0.06277213  0.43538224    -0.11600
C954        C  0.72460988  0.07307277  0.42895846     0.03800
C955        C  0.72328066  0.09271237  0.41179439    -0.12200
C956        C  0.74487908  0.10224321  0.40063613     0.18700
C957        C  0.76812407  0.09176369  0.40686065    -0.09200
C958        C  0.76945278  0.07218069  0.42416853    -0.02200
H959        H  0.70532572  0.10056535  0.40707362     0.05200
C960        C  0.74276438  0.12285286  0.38229825     0.20700
H961        H  0.78738473  0.06436791  0.42903340     0.10400
C962        C  0.75101153  0.14675492  0.38877109    -0.15600
C963        C  0.75032326  0.16640364  0.37150565     0.03400
C964        C  0.74146757  0.16218570  0.34689556    -0.10900
C965        C  0.73212557  0.13835810  0.34100395    -0.00900
C966        C  0.73268593  0.11888009  0.35841241    -0.06100
H967        H  0.75823058  0.15007977  0.40736298     0.06400
H968        H  0.72518809  0.13445629  0.32242861     0.09800
Br969      Br  0.79838092  0.10317134  0.39168641    -0.05800
Br970      Br  0.69430768  0.06071010  0.44317944    -0.02700
Br971      Br  0.76145657  0.19834488  0.38331392     0.00100
Br972      Br  0.72077471  0.08672783  0.34828151    -0.04200
C973        C  0.66142699  0.75955283  0.84889390    -0.11600
C974        C  0.63750933  0.77013743  0.84507462     0.03800
C975        C  0.62010183  0.77032337  0.86458827    -0.12200
C976        C  0.62554706  0.75967884  0.88787404     0.18700
C977        C  0.64918420  0.74919110  0.89179908    -0.09200
C978        C  0.66688469  0.74950459  0.87262353    -0.02200
H979        H  0.60178780  0.77809117  0.86130869     0.05200
C980        C  0.60575441  0.75854361  0.90719026     0.20700
H981        H  0.68488886  0.74121157  0.87623435     0.10400
C982        C  0.59461598  0.73554527  0.91282262    -0.15600
C983        C  0.57475860  0.73407050  0.92971788     0.03400
C984        C  0.56538960  0.75589575  0.94091608    -0.10900
C985        C  0.57687287  0.77881172  0.93572780    -0.00900
C986        C  0.59701180  0.78023078  0.91915303    -0.06100
H987        H  0.60130307  0.71870782  0.90390360     0.06400
H988        H  0.57022226  0.79560986  0.94474367     0.09800
Br989      Br  0.65808619  0.73385893  0.92291541    -0.05800
Br990      Br  0.62609288  0.78294533  0.81353360    -0.02700
Br991      Br  0.56123480  0.70189314  0.93735082     0.00100
Br992      Br  0.61268746  0.81194152  0.91413007    -0.04200
C993        C  0.93196602  0.56439894  0.74574230    -0.11600
C994        C  0.92615715  0.57214827  0.77018389     0.03800
C995        C  0.90863016  0.59100727  0.77404301    -0.12200
C996        C  0.89630014  0.60198484  0.75378988     0.18700
C997        C  0.90125522  0.59347353  0.72938567    -0.09200
C998        C  0.91918679  0.57491761  0.72547142    -0.02200
H999        H  0.90460436  0.59715403  0.79288494     0.05200
C1000       C  0.87873079  0.62267659  0.75833260     0.20700
H1001       H  0.92311076  0.56860880  0.70666284     0.10400
C1002       C  0.88665937  0.64723234  0.75436415    -0.15600
C1003       C  0.87012710  0.66724113  0.75686026     0.03400
C1004       C  0.84485185  0.66271412  0.76252549    -0.10900
C1005       C  0.83746923  0.63814803  0.76815997    -0.00900
C1006       C  0.85424112  0.61826826  0.76634376    -0.06100
H1007       H  0.90581388  0.65082086  0.74922576     0.06400
H1008       H  0.81832105  0.63415789  0.77298967     0.09800
Br1009     Br  0.88333247  0.60616574  0.70111962    -0.05800
Br1010     Br  0.94144974  0.55704033  0.79880590    -0.02700
Br1011     Br  0.88358473  0.70021998  0.75377332     0.00100
Br1012     Br  0.84271729  0.58529878  0.77398826    -0.04200
C1013       C  0.76499746  0.85224503  0.67153338    -0.11600
C1014       C  0.78447971  0.85241276  0.65366634     0.03800
C1015       C  0.78402712  0.86962084  0.63390214    -0.12200
C1016       C  0.76496249  0.88737481  0.63192642     0.18700
C1017       C  0.74703967  0.88883582  0.65101675    -0.09200
C1018       C  0.74708303  0.87137994  0.67042522    -0.02200
H1019       H  0.79836348  0.86881626  0.61970300     0.05200
C1020       C  0.76316923  0.90341020  0.60936686     0.20700
H1021       H  0.73229163  0.87226107  0.68412906     0.10400
C1022       C  0.74251470  0.90083108  0.59348806    -0.15600
C1023       C  0.73926961  0.91660115  0.57287794     0.03400
C1024       C  0.75705826  0.93514028  0.56766582    -0.10900
C1025       C  0.77809192  0.93719410  0.58304417    -0.00900
C1026       C  0.78122941  0.92158305  0.60377702    -0.06100
H1027       H  0.72856496  0.88682567  0.59750360     0.06400
H1028       H  0.79179332  0.95149952  0.57924881     0.09800
Br1029     Br  0.72198981  0.91434185  0.65133141    -0.05800
Br1030     Br  0.81252579  0.83024723  0.65519883    -0.02700
Br1031     Br  0.70972968  0.91298591  0.55315968     0.00100
Br1032     Br  0.80961992  0.92691876  0.62473210    -0.04200
C1033       C  0.77166907  0.32984495  0.14841327    -0.11600
C1034       C  0.78015506  0.35420442  0.15449822     0.03800
C1035       C  0.78128881  0.37259878  0.13604630    -0.12200
C1036       C  0.77401445  0.36755117  0.11154387     0.18700
C1037       C  0.76731249  0.34311404  0.10491362    -0.09200
C1038       C  0.76612892  0.32449545  0.12328172    -0.02200
H1039       H  0.78631890  0.39146777  0.14120006     0.05200
C1040       C  0.76946681  0.38881919  0.09463908     0.20700
H1041       H  0.75995591  0.30601787  0.11803180     0.10400
C1042       C  0.78838013  0.39762199  0.07893786    -0.15600
C1043       C  0.78421391  0.41822810  0.06338555     0.03400
C1044       C  0.76092195  0.43040524  0.06366624    -0.10900
C1045       C  0.74222053  0.42176353  0.07969043    -0.00900
C1046       C  0.74634665  0.40113996  0.09508840    -0.06100
H1047       H  0.80628923  0.38837957  0.07868834     0.06400
H1048       H  0.72416397  0.43071896  0.07973329     0.09800
Br1049     Br  0.75809735  0.33492820  0.07131906    -0.05800
Br1050     Br  0.78770817  0.36525232  0.18782044    -0.02700
Br1051     Br  0.81061145  0.42891655  0.04173782     0.00100
Br1052     Br  0.71973773  0.39004548  0.11623044    -0.04200
C1053       C  0.73767458  0.56018796  0.93598255    -0.11600
C1054       C  0.71731802  0.56243338  0.91961334     0.03800
C1055       C  0.71778187  0.58023570  0.90044884    -0.12200
C1056       C  0.73838688  0.59596123  0.89723029     0.18700
C1057       C  0.75851037  0.59410025  0.91402224    -0.09200
C1058       C  0.75805300  0.57624514  0.93314438    -0.02200
H1059       H  0.70207863  0.58171104  0.88787194     0.05200
C1060       C  0.73812512  0.61452099  0.87662714     0.20700
H1061       H  0.77377287  0.57466266  0.94569259     0.10400
C1062       C  0.72332114  0.63585506  0.87893211    -0.15600
C1063       C  0.72235037  0.65387309  0.85993745     0.03400
C1064       C  0.73662901  0.65075329  0.83774889    -0.10900
C1065       C  0.75089222  0.62878321  0.83540221    -0.00900
C1066       C  0.75166178  0.61084004  0.85445535    -0.06100
H1067       H  0.71252963  0.63859685  0.89580924     0.06400
H1068       H  0.76192756  0.62559119  0.81878654     0.09800
Br1069     Br  0.78678737  0.61573798  0.91185899    -0.05800
Br1070     Br  0.68863099  0.54148585  0.92281114    -0.02700
Br1071     Br  0.70116299  0.68201256  0.86645218     0.00100
Br1072     Br  0.77125305  0.58140660  0.84924713    -0.04200
C1073       C  0.23362007  0.33605182  0.85048757    -0.11600
C1074       C  0.24702104  0.33207449  0.87286469     0.03800
C1075       C  0.24931317  0.35140337  0.89028635    -0.12200
C1076       C  0.23845348  0.37474890  0.88584789     0.18700
C1077       C  0.22435342  0.37845302  0.86403973    -0.09200
C1078       C  0.22180999  0.35912747  0.84674661    -0.02200
H1079       H  0.25993095  0.34834742  0.90720917     0.05200
C1080       C  0.24262864  0.39524694  0.90378344     0.20700
H1081       H  0.21179190  0.36272301  0.82956145     0.10400
C1082       C  0.26544848  0.40792617  0.90360993    -0.15600
C1083       C  0.26987571  0.42759248  0.92021316     0.03400
C1084       C  0.25125370  0.43480769  0.93725192    -0.10900
C1085       C  0.22854951  0.42195295  0.93754106    -0.00900
C1086       C  0.22416985  0.40226190  0.92102619    -0.06100
H1087       H  0.27982634  0.40249012  0.89051925     0.06400
H1088       H  0.21424701  0.42720791  0.95078659     0.09800
Br1089     Br  0.20977483  0.41014432  0.85619007    -0.05800
Br1090     Br  0.26235633  0.30070909  0.88083420    -0.02700
Br1091     Br  0.30174064  0.44359330  0.91951871     0.00100
Br1092     Br  0.19300101  0.38504856  0.92302174    -0.04200
C1093       C  0.26428971  0.66022392  0.15912301    -0.11600
C1094       C  0.24957405  0.63833912  0.16034248     0.03800
C1095       C  0.25154728  0.62010736  0.14163363    -0.12200
C1096       C  0.26836338  0.62275275  0.12178384     0.18700
C1097       C  0.28399859  0.64375660  0.12119760    -0.09200
C1098       C  0.28187921  0.66219247  0.13965438    -0.02200
H1099       H  0.23977184  0.60375149  0.14250766     0.05200
C1100       C  0.26838493  0.60403840  0.10129285     0.20700
H1101       H  0.29358555  0.67855376  0.13824110     0.10400
C1102       C  0.24953311  0.60495652  0.08318944    -0.15600
C1103       C  0.24833266  0.58719354  0.06402032     0.03400
C1104       C  0.26635145  0.56814892  0.06252473    -0.10900
C1105       C  0.28532682  0.56733059  0.08057804    -0.00900
C1106       C  0.28632895  0.58493976  0.09994002    -0.06100
H1107       H  0.23544816  0.61936286  0.08421584     0.06400
H1108       H  0.29905866  0.55256800  0.07991435     0.09800
Br1109     Br  0.30782148  0.64850299  0.09493527    -0.05800
Br1110     Br  0.22712930  0.63144059  0.18738267    -0.02700
Br1111     Br  0.22092023  0.58879853  0.04117135     0.00100
Br1112     Br  0.31173713  0.58154537  0.12482041    -0.04200
C1113       C  0.43674442  0.06594652  0.76304208    -0.11600
C1114       C  0.41907741  0.06615959  0.78248929     0.03800
C1115       C  0.40019435  0.08419748  0.78280020    -0.12200
C1116       C  0.39846081  0.10220065  0.76383018     0.18700
C1117       C  0.41669928  0.10255450  0.74485989    -0.09200
C1118       C  0.43558686  0.08448638  0.74455512    -0.02200
H1119       H  0.38660297  0.08398810  0.79773633     0.05200
C1120       C  0.37795794  0.12085186  0.76454704     0.20700
H1121       H  0.44916500  0.08461791  0.72960322     0.10400
C1122       C  0.37818969  0.13938213  0.78292972    -0.15600
C1123       C  0.35988339  0.15801016  0.78368219     0.03400
C1124       C  0.34090193  0.15878873  0.76520023    -0.10900
C1125       C  0.34022404  0.13938925  0.74744568    -0.00900
C1126       C  0.35818847  0.12037169  0.74732203    -0.06100
H1127       H  0.39296436  0.13951952  0.79668253     0.06400
H1128       H  0.32560512  0.13891553  0.73354969     0.09800
Br1129     Br  0.41675398  0.12758750  0.71923759    -0.05800
Br1130     Br  0.42004895  0.04197682  0.80886671    -0.02700
Br1131     Br  0.36291535  0.18174739  0.81036180     0.00100
Br1132     Br  0.35452809  0.09354047  0.72394242    -0.04200
C1133       C  0.55886067  0.93015924  0.74827722    -0.11600
C1134       C  0.57413388  0.92293798  0.76834985     0.03800
C1135       C  0.59168543  0.90397701  0.76508653    -0.12200
C1136       C  0.59413838  0.89176223  0.74203763     0.18700
C1137       C  0.57812806  0.89825002  0.72225091    -0.09200
C1138       C  0.56070328  0.91741607  0.72545267    -0.02200
H1139       H  0.60357884  0.89877912  0.78056809     0.05200
C1140       C  0.61378757  0.87261543  0.73914047     0.20700
H1141       H  0.54873988  0.92261598  0.71002829     0.10400
C1142       C  0.60728053  0.84733429  0.73787276    -0.15600
C1143       C  0.62561008  0.82872839  0.73766275     0.03400
C1144       C  0.65102644  0.83535686  0.73866495    -0.10900
C1145       C  0.65740583  0.86076999  0.73861293    -0.00900
C1146       C  0.63908961  0.87928543  0.73909893    -0.06100
H1147       H  0.58784596  0.84204515  0.73765796     0.06400
H1148       H  0.67675524  0.86630868  0.73941552     0.09800
Br1149     Br  0.57997651  0.88203561  0.69039435    -0.05800
Br1150     Br  0.57121195  0.93814157  0.80062592    -0.02700
Br1151     Br  0.61478069  0.79472809  0.73548825     0.00100
Br1152     Br  0.64950542  0.91347990  0.74038385    -0.04200
C1153       C  0.33723708  0.75874115  0.84271919    -0.11600
C1154       C  0.33289287  0.75215236  0.86802941     0.03800
C1155       C  0.35230620  0.75334610  0.88550598    -0.12200
C1156       C  0.37604160  0.76161832  0.87858717     0.18700
C1157       C  0.38010217  0.76952662  0.85388693    -0.09200
C1158       C  0.36094448  0.76788816  0.83621000    -0.02200
H1159       H  0.34885181  0.74785314  0.90467776     0.05200
C1160       C  0.39641262  0.76166088  0.89729389     0.20700
H1161       H  0.36483407  0.77342525  0.81714535     0.10400
C1162       C  0.41341585  0.74179331  0.89777812    -0.15600
C1163       C  0.43250395  0.74093287  0.91560292     0.03400
C1164       C  0.43509014  0.76042041  0.93307118    -0.10900
C1165       C  0.41819339  0.78040430  0.93237736    -0.00900
C1166       C  0.39886796  0.78101949  0.91484338    -0.06100
H1167       H  0.41152877  0.72667219  0.88452017     0.06400
H1168       H  0.41976241  0.79531967  0.94591067     0.09800
Br1169     Br  0.41150175  0.78306950  0.84368583    -0.05800
Br1170     Br  0.30077260  0.74275844  0.88058903    -0.02700
Br1171     Br  0.45369234  0.71215072  0.91631313     0.00100
Br1172     Br  0.37605472  0.80846898  0.91566899    -0.04200
C1173       C  0.05959127  0.56719178  0.74826760    -0.11600
C1174       C  0.05839014  0.58418515  0.76830680     0.03800
C1175       C  0.07629543  0.60297444  0.77049205    -0.12200
C1176       C  0.09532931  0.60530535  0.75275790     0.18700
C1177       C  0.09640821  0.58847129  0.73259985    -0.09200
C1178       C  0.07866979  0.56953007  0.73054557    -0.02200
H1179       H  0.07526636  0.61594820  0.78595088     0.05200
C1180       C  0.11362237  0.62570302  0.75524226     0.20700
H1181       H  0.07966347  0.55662435  0.71502372     0.10400
C1182       C  0.13384169  0.62298523  0.77150550    -0.15600
C1183       C  0.15228559  0.64140684  0.77316128     0.03400
C1184       C  0.15083660  0.66300113  0.75787655    -0.10900
C1185       C  0.12964616  0.66600133  0.74260155    -0.00900
C1186       C  0.11117177  0.64774376  0.74134581    -0.06100
H1187       H  0.13542026  0.60627166  0.78277394     0.06400
H1188       H  0.12756876  0.68238864  0.73098546     0.09800
Br1189     Br  0.12168940  0.59074163  0.70742030    -0.05800
Br1190     Br  0.03277718  0.58229633  0.79320475    -0.02700
Br1191     Br  0.17836501  0.63562966  0.79700000     0.00100
Br1192     Br  0.08287874  0.65356110  0.72028115    -0.04200
C1193       C  0.22963128  0.85162569  0.66626691    -0.11600
C1194       C  0.22063792  0.84652539  0.64180819     0.03800
C1195       C  0.21949254  0.86557169  0.62385872    -0.12200
C1196       C  0.22717864  0.88985430  0.62942842     0.18700
C1197       C  0.23485607  0.89537249  0.65394227    -0.09200
C1198       C  0.23606256  0.87641746  0.67205793    -0.02200
H1199       H  0.21376913  0.86110940  0.60498186     0.05200
C1200       C  0.23026128  0.90813484  0.60871519     0.20700
H1201       H  0.24282978  0.88097929  0.69054594     0.10400
C1202       C  0.21074165  0.92420022  0.60195677    -0.15600
C1203       C  0.21371442  0.94151541  0.58241758     0.03400
C1204       C  0.23651968  0.94304966  0.56946256    -0.10900
C1205       C  0.25579126  0.92667371  0.57597071    -0.00900
C1206       C  0.25276306  0.90926893  0.59526679    -0.06100
H1207       H  0.19320370  0.92324850  0.61186033     0.06400
H1208       H  0.27331151  0.92750609  0.56601912     0.09800
Br1209     Br  0.24520346  0.92834420  0.66296539    -0.05800
Br1210     Br  0.21208165  0.81370107  0.63022134    -0.02700
Br1211     Br  0.18615961  0.96242667  0.57361061     0.00100
Br1212     Br  0.27983803  0.88717076  0.60261885    -0.04200
C1213       C  0.26755466  0.64698180  0.82736751    -0.11600
C1214       C  0.28471066  0.64976810  0.84741628     0.03800
C1215       C  0.28609268  0.63164882  0.86623730    -0.12200
C1216       C  0.27118394  0.61033335  0.86557331     0.18700
C1217       C  0.25561018  0.60641117  0.84486511    -0.09200
C1218       C  0.25383502  0.62459824  0.82607527    -0.02200
H1219       H  0.29841494  0.63456761  0.88197314     0.05200
C1220       C  0.27037524  0.59383479  0.88781756     0.20700
H1221       H  0.24089742  0.62153421  0.81089696     0.10400
C1222       C  0.25360473  0.59944543  0.90709478    -0.15600
C1223       C  0.25186303  0.58431116  0.92838533     0.03400
C1224       C  0.26753312  0.56335013  0.93096992    -0.10900
C1225       C  0.28481627  0.55819724  0.91186680    -0.00900
C1226       C  0.28608335  0.57301502  0.89030696    -0.06100
H1227       H  0.24140921  0.61542746  0.90529607     0.06400
H1228       H  0.29678202  0.54201524  0.91337919     0.09800
Br1229     Br  0.23570997  0.57689382  0.84212069    -0.05800
Br1230     Br  0.30668082  0.67774354  0.85134677    -0.02700
Br1231     Br  0.22667416  0.59223851  0.95248245     0.00100
Br1232     Br  0.30874115  0.56361100  0.86431312    -0.04200
C1233       C  0.43074883  0.93740599  0.74241133    -0.11600
C1234       C  0.42750319  0.92599791  0.71893759     0.03800
C1235       C  0.41127596  0.90570568  0.71640009    -0.12200
C1236       C  0.39802180  0.89659484  0.73704580     0.18700
C1237       C  0.40085614  0.90836154  0.76040503    -0.09200
C1238       C  0.41714234  0.92857531  0.76294938    -0.02200
H1239       H  0.40891771  0.89706441  0.69827845     0.05200
C1240       C  0.38023408  0.87574342  0.73379025     0.20700
H1241       H  0.41971913  0.93702226  0.78113427     0.10400
C1242       C  0.38832133  0.85093810  0.73588314    -0.15600
C1243       C  0.37123417  0.83111497  0.73529619     0.03400
C1244       C  0.34547227  0.83609330  0.73304512    -0.10900
C1245       C  0.33783084  0.86093003  0.72935560    -0.00900
C1246       C  0.35491408  0.88055307  0.72962096    -0.06100
H1247       H  0.40792657  0.84702318  0.73836596     0.06400
H1248       H  0.31828813  0.86533971  0.72727171     0.09800
Br1249     Br  0.38307353  0.89714421  0.78937173    -0.05800
Br1250     Br  0.44502011  0.93757859  0.68997884    -0.02700
Br1251     Br  0.38428726  0.79781361  0.73659804     0.00100
Br1252     Br  0.34279111  0.91386241  0.72497348    -0.04200
C1253       C  0.06331137  0.72873524  0.43333092    -0.11600
C1254       C  0.08434308  0.71323032  0.43661389     0.03800
C1255       C  0.10424805  0.71451248  0.41978308    -0.12200
C1256       C  0.10332581  0.73037931  0.39898062     0.18700
C1257       C  0.08147683  0.74420132  0.39446190    -0.09200
C1258       C  0.06205634  0.74386602  0.41190477    -0.02200
H1259       H  0.12054374  0.70305687  0.42293844     0.05200
C1260       C  0.12500637  0.73179697  0.38186866     0.20700
H1261       H  0.04585694  0.75543259  0.40868943     0.10400
C1262       C  0.13247353  0.71046694  0.36876063    -0.15600
C1263       C  0.15160706  0.71152917  0.35101211     0.03400
C1264       C  0.16349906  0.73456819  0.34579509    -0.10900
C1265       C  0.15706371  0.75544868  0.36036890    -0.00900
C1266       C  0.13826352  0.75415451  0.37836824    -0.06100
H1267       H  0.12298384  0.69294907  0.37199711     0.06400
H1268       H  0.16619019  0.77318900  0.35736988     0.09800
Br1269     Br  0.07677280  0.76265591  0.36406773    -0.05800
Br1270     Br  0.08655954  0.68937896  0.46328924    -0.02700
Br1271     Br  0.16036995  0.68059397  0.33516098     0.00100
Br1272     Br  0.13163152  0.78341248  0.39790490    -0.04200
C1273       C  0.83508862  0.73904784  0.65379737    -0.11600
C1274       C  0.85825028  0.72689801  0.65769950     0.03800
C1275       C  0.87594149  0.72591517  0.63851536    -0.12200
C1276       C  0.87134986  0.73663800  0.61516416     0.18700
C1277       C  0.84813359  0.74788058  0.61070590    -0.09200
C1278       C  0.83036343  0.74914506  0.62990154    -0.02200
H1279       H  0.89374837  0.71711680  0.64201095     0.05200
C1280       C  0.89155787  0.73649990  0.59625533     0.20700
H1281       H  0.81284188  0.75835541  0.62611207     0.10400
C1282       C  0.89457562  0.71572548  0.58065844    -0.15600
C1283       C  0.91467235  0.71425499  0.56400840     0.03400
C1284       C  0.93215201  0.73381708  0.56268961    -0.10900
C1285       C  0.92918640  0.75453141  0.57841060    -0.00900
C1286       C  0.90918372  0.75590398  0.59518441    -0.06100
H1287       H  0.88144790  0.70045477  0.58170517     0.06400
H1288       H  0.94240207  0.76973197  0.57750474     0.09800
Br1289     Br  0.84003637  0.76191029  0.57877806    -0.05800
Br1290     Br  0.86821038  0.71218167  0.68877328    -0.02700
Br1291     Br  0.91799373  0.68486114  0.54392772     0.00100
Br1292     Br  0.90683440  0.78436774  0.61669086    -0.04200
C1293       C  0.06290833  0.73444860  0.56222587    -0.11600
C1294       C  0.06477794  0.75386381  0.57982627     0.03800
C1295       C  0.08447395  0.75412156  0.59689200    -0.12200
C1296       C  0.10291138  0.73561852  0.59633316     0.18700
C1297       C  0.10137051  0.71645969  0.57843909    -0.09200
C1298       C  0.08141132  0.71593823  0.56164482    -0.02200
H1299       H  0.08562179  0.76902996  0.61047810     0.05200
C1300       C  0.12301239  0.73633132  0.61520465     0.20700
H1301       H  0.08037205  0.70113222  0.54793831     0.10400
C1302       C  0.11716800  0.73080480  0.64008489    -0.15600
C1303       C  0.13505677  0.73273479  0.65893905     0.03400
C1304       C  0.15966049  0.74007045  0.65294800    -0.10900
C1305       C  0.16541932  0.74556738  0.62789442    -0.00900
C1306       C  0.14733310  0.74390389  0.60914501    -0.06100
H1307       H  0.09832991  0.72553397  0.64495377     0.06400
H1308       H  0.18397884  0.75161838  0.62289414     0.09800
Br1309     Br  0.12588830  0.69053912  0.57647822    -0.05800
Br1310     Br  0.04165404  0.78109089  0.58040390    -0.02700
Br1311     Br  0.12364093  0.72740654  0.69256012     0.00100
Br1312     Br  0.15628612  0.75359502  0.57583728    -0.04200
C1313       C  0.55756650  0.75401835  0.06950143    -0.11600
C1314       C  0.56828717  0.73295154  0.08091575     0.03800
C1315       C  0.58768741  0.73597662  0.09808262    -0.12200
C1316       C  0.59655023  0.75982664  0.10419643     0.18700
C1317       C  0.58554294  0.78089757  0.09299390    -0.09200
C1318       C  0.56618700  0.77784405  0.07584745    -0.02200
H1319       H  0.59607593  0.71965622  0.10653259     0.05200
C1320       C  0.61790440  0.76211400  0.12149928     0.20700
H1321       H  0.55815743  0.79411306  0.06695283     0.10400
C1322       C  0.64136572  0.75349553  0.11386267    -0.15600
C1323       C  0.66174131  0.75397429  0.13017863     0.03400
C1324       C  0.65882013  0.76343746  0.15458144    -0.10900
C1325       C  0.63545887  0.77267541  0.16188822    -0.00900
C1326       C  0.61504228  0.77176071  0.14577041    -0.06100
H1327       H  0.64375242  0.74611787  0.09518117     0.06400
H1328       H  0.63273214  0.77954305  0.18072202     0.09800
Br1329     Br  0.59712072  0.81409811  0.09938714    -0.05800
Br1330     Br  0.55754337  0.69982811  0.07297133    -0.02700
Br1331     Br  0.69313058  0.74215362  0.11794008     0.00100
Br1332     Br  0.58330817  0.78212557  0.15848786    -0.04200
C1333       C  0.84740847  0.66680598  0.23137961    -0.11600
C1334       C  0.86957671  0.67176477  0.24467956     0.03800
C1335       C  0.88813431  0.65347155  0.24638953    -0.12200
C1336       C  0.88521818  0.63028500  0.23471186     0.18700
C1337       C  0.86381138  0.62579489  0.22032283    -0.09200
C1338       C  0.84522078  0.64399781  0.21864696    -0.02200
H1339       H  0.90478256  0.65722641  0.25712518     0.05200
C1340       C  0.90396107  0.61046512  0.23869184     0.20700
H1341       H  0.82842140  0.63974088  0.20839943     0.10400
C1342       C  0.90361911  0.59684021  0.26110062    -0.15600
C1343       C  0.92001414  0.57688305  0.26485591     0.03400
C1344       C  0.93695361  0.57025862  0.24594175    -0.10900
C1345       C  0.93770246  0.58428541  0.22381137    -0.00900
C1346       C  0.92143445  0.60430527  0.22011657    -0.06100
H1347       H  0.89038301  0.60160630  0.27559146     0.06400
H1348       H  0.95106839  0.57964234  0.20939726     0.09800
Br1349     Br  0.85851179  0.59438540  0.20403468    -0.05800
Br1350     Br  0.87589089  0.70336456  0.26024571    -0.02700
Br1351     Br  0.91910838  0.55952482  0.29616904     0.00100
Br1352     Br  0.92388438  0.62290955  0.18961629    -0.04200
C1353       C  0.76348262  0.84464628  0.33712426    -0.11600
C1354       C  0.75170938  0.86805727  0.33469329     0.03800
C1355       C  0.75213125  0.88502330  0.35461696    -0.12200
C1356       C  0.76446815  0.87930740  0.37699325     0.18700
C1357       C  0.77719772  0.85648878  0.37906840    -0.09200
C1358       C  0.77665841  0.83944254  0.35926455    -0.02200
H1359       H  0.74272985  0.90278542  0.35267745     0.05200
C1360       C  0.76315755  0.89713302  0.39810679     0.20700
H1361       H  0.78588504  0.82163072  0.36157540     0.10400
C1362       C  0.74147837  0.89812129  0.41268767    -0.15600
C1363       C  0.73902978  0.91560244  0.43197030     0.03400
C1364       C  0.75834056  0.93270007  0.43666907    -0.10900
C1365       C  0.78020121  0.93139621  0.42239409    -0.00900
C1366       C  0.78275974  0.91372317  0.40331448    -0.06100
H1367       H  0.72633761  0.88536546  0.40890409     0.06400
H1368       H  0.79521281  0.94435621  0.42598246     0.09800
Br1369     Br  0.79477511  0.84746732  0.40892722    -0.05800
Br1370     Br  0.73594819  0.87841459  0.30426243    -0.02700
Br1371     Br  0.70880732  0.91592472  0.45101048     0.00100
Br1372     Br  0.81308799  0.91323890  0.38450337    -0.04200
C1373       C  0.73204992  0.55858279  0.06567666    -0.11600
C1374       C  0.71217872  0.55956378  0.08284123     0.03800
C1375       C  0.71176768  0.57798281  0.10145816    -0.12200
C1376       C  0.73071025  0.59595678  0.10297408     0.18700
C1377       C  0.75005134  0.59548270  0.08518063    -0.09200
C1378       C  0.75067287  0.57684160  0.06690499    -0.02200
H1379       H  0.69666238  0.57824948  0.11484522     0.05200
C1380       C  0.73052716  0.61469413  0.12346641     0.20700
H1381       H  0.76581600  0.57653912  0.05355664     0.10400
C1382       C  0.74953055  0.61419555  0.14138176    -0.15600
C1383       C  0.75117542  0.63245117  0.16002973     0.03400
C1384       C  0.73331774  0.65191046  0.16118056    -0.10900
C1385       C  0.71368984  0.65164654  0.14371310    -0.00900
C1386       C  0.71224225  0.63340537  0.12502230    -0.06100
H1387       H  0.76347839  0.59963292  0.14058691     0.06400
H1388       H  0.69977894  0.66624823  0.14392889     0.09800
Br1389     Br  0.77560110  0.62042737  0.08452801    -0.05800
Br1390     Br  0.68500944  0.53653260  0.08110759    -0.02700
Br1391     Br  0.77831888  0.62906941  0.18310402     0.00100
Br1392     Br  0.68585524  0.63585267  0.10104570    -0.04200
C1393       C  0.83470052  0.73446580  0.34412775    -0.11600
C1394       C  0.85098295  0.71385354  0.34737834     0.03800
C1395       C  0.86927633  0.71450535  0.36593655    -0.12200
C1396       C  0.87182990  0.73506389  0.38180648     0.18700
C1397       C  0.85532713  0.75525081  0.37927178    -0.09200
C1398       C  0.83703262  0.75481883  0.36066187    -0.02200
H1399       H  0.88190678  0.69887175  0.36784093     0.05200
C1400       C  0.89222098  0.73502053  0.40043510     0.20700
H1401       H  0.82485057  0.77080800  0.35892925     0.10400
C1402       C  0.91210972  0.75176392  0.39775175    -0.15600
C1403       C  0.93226657  0.75126252  0.41432330     0.03400
C1404       C  0.93293360  0.73346755  0.43372923    -0.10900
C1405       C  0.91306735  0.71667630  0.43628230    -0.00900
C1406       C  0.89275888  0.71747943  0.42001403    -0.06100
H1407       H  0.91192719  0.76527805  0.38270305     0.06400
H1408       H  0.91315068  0.70321280  0.45138165     0.09800
Br1409     Br  0.85681223  0.78367255  0.40096534    -0.05800
Br1410     Br  0.85028271  0.68413561  0.32734831    -0.02700
Br1411     Br  0.95784477  0.77587478  0.41032126     0.00100
Br1412     Br  0.86565610  0.69500075  0.42595775    -0.04200
C1413       C  0.43350217  0.93767028  0.26145584    -0.11600
C1414       C  0.41462230  0.93836320  0.27973951     0.03800
C1415       C  0.39783907  0.91845707  0.28175809    -0.12200
C1416       C  0.40024072  0.89729295  0.26648148     0.18700
C1417       C  0.42000480  0.89612102  0.24923540    -0.09200
C1418       C  0.43601638  0.91634855  0.24650959    -0.02200
H1419       H  0.38271848  0.91961639  0.29507713     0.05200
C1420       C  0.38057993  0.87794769  0.26643013     0.20700
H1421       H  0.45089443  0.91528484  0.23289121     0.10400
C1422       C  0.36750409  0.87408307  0.24417862    -0.15600
C1423       C  0.34894097  0.85609290  0.24246267     0.03400
C1424       C  0.34253839  0.84167387  0.26366259    -0.10900
C1425       C  0.35536147  0.84581936  0.28619622    -0.00900
C1426       C  0.37440859  0.86365577  0.28765932    -0.06100
H1427       H  0.37174694  0.88534168  0.22790413     0.06400
H1428       H  0.35068901  0.83503647  0.30265849     0.09800
Br1429     Br  0.42647688  0.86696654  0.22946732    -0.05800
Br1430     Br  0.41153781  0.96555156  0.30278038    -0.02700
Br1431     Br  0.33225748  0.85376782  0.21077750     0.00100
Br1432     Br  0.39191360  0.86722250  0.31866170    -0.04200
C1433       C  0.66543966  0.14935438  0.23894835    -0.11600
C1434       C  0.64049397  0.15585272  0.24417174     0.03800
C1435       C  0.62165868  0.13780477  0.24308672    -0.12200
C1436       C  0.62715026  0.11282879  0.23771686     0.18700
C1437       C  0.65217805  0.10601555  0.23357560    -0.09200
C1438       C  0.67104736  0.12420844  0.23412895    -0.02200
H1439       H  0.60264432  0.14318491  0.24705173     0.05200
C1440       C  0.60643422  0.09436515  0.23652715     0.20700
H1441       H  0.69013639  0.11869674  0.23079542     0.10400
C1442       C  0.59050281  0.09426368  0.21571563    -0.15600
C1443       C  0.57048631  0.07748311  0.21414090     0.03400
C1444       C  0.56600021  0.06039283  0.23372372    -0.10900
C1445       C  0.58181557  0.06075038  0.25462055    -0.00900
C1446       C  0.60173224  0.07753201  0.25620204    -0.06100
H1447       H  0.59370642  0.10728815  0.20057857     0.06400
H1448       H  0.57847491  0.04798164  0.26994919     0.09800
Br1449     Br  0.66137139  0.07207174  0.22720009    -0.05800
Br1450     Br  0.63147287  0.18854772  0.25560864    -0.02700
Br1451     Br  0.55006237  0.07849043  0.18479788     0.00100
Br1452     Br  0.62139667  0.07734757  0.28605524    -0.04200
C1453       C  0.56008133  0.93202822  0.25308576    -0.11600
C1454       C  0.55744973  0.90967465  0.23942951     0.03800
C1455       C  0.57383203  0.88977037  0.24356169    -0.12200
C1456       C  0.59298132  0.89152067  0.26129601     0.18700
C1457       C  0.59549341  0.91377499  0.27508592    -0.09200
C1458       C  0.57904220  0.93368138  0.27102433    -0.02200
H1459       H  0.57197252  0.87298840  0.23247613     0.05200
C1460       C  0.61215929  0.87153582  0.26224844     0.20700
H1461       H  0.58109189  0.95059784  0.28185484     0.10400
C1462       C  0.62767325  0.86870234  0.24145560    -0.15600
C1463       C  0.64670680  0.85100227  0.24120138     0.03400
C1464       C  0.65060153  0.83531954  0.26208802    -0.10900
C1465       C  0.63494276  0.83796177  0.28298100    -0.00900
C1466       C  0.61562615  0.85571541  0.28307250    -0.06100
H1467       H  0.62530468  0.88082607  0.22542530     0.06400
H1468       H  0.63755837  0.82604234  0.29910982     0.09800
Br1469     Br  0.62193017  0.91845969  0.29862778    -0.05800
Br1470     Br  0.53220676  0.90565326  0.21442136    -0.02700
Br1471     Br  0.66805263  0.85081916  0.21239734     0.00100
Br1472     Br  0.59404562  0.85719836  0.31156661    -0.04200
C1473       C  0.65764886  0.26859931  0.84036718    -0.11600
C1474       C  0.66075605  0.28320270  0.86225516     0.03800
C1475       C  0.64243401  0.28294562  0.88093552    -0.12200
C1476       C  0.62091106  0.26848279  0.87832013     0.18700
C1477       C  0.61740534  0.25463635  0.85634088    -0.09200
C1478       C  0.63566006  0.25467050  0.83770856    -0.02200
H1479       H  0.64519311  0.29371883  0.89781577     0.05200
C1480       C  0.60220420  0.26782797  0.89862694     0.20700
H1481       H  0.63278541  0.24338235  0.82119547     0.10400
C1482       C  0.58196593  0.28423191  0.89773752    -0.15600
C1483       C  0.56327651  0.28339399  0.91594497     0.03400
C1484       C  0.56442313  0.26556190  0.93540021    -0.10900
C1485       C  0.58475774  0.24904799  0.93611504    -0.00900
C1486       C  0.60370787  0.25032250  0.91817378    -0.06100
H1487       H  0.58072853  0.29778681  0.88277463     0.06400
H1488       H  0.58603097  0.23530191  0.95089608     0.09800
Br1489     Br  0.58813438  0.23487520  0.85136316    -0.05800
Br1490     Br  0.69015281  0.30245382  0.86900775    -0.02700
Br1491     Br  0.53715519  0.30768764  0.91363694     0.00100
Br1492     Br  0.63137461  0.22793204  0.92107182    -0.04200
C1493       C  0.84029543  0.34140018  0.73392037    -0.11600
C1494       C  0.85812296  0.34358502  0.71446219     0.03800
C1495       C  0.87606856  0.36247438  0.71533282    -0.12200
C1496       C  0.87659061  0.37970333  0.73492537     0.18700
C1497       C  0.85803968  0.37874926  0.75337597    -0.09200
C1498       C  0.84039195  0.35959965  0.75294306    -0.02200
H1499       H  0.88998944  0.36355454  0.70073065     0.05200
C1500       C  0.89657141  0.39860149  0.73553533     0.20700
H1501       H  0.82674962  0.35892012  0.76775315     0.10400
C1502       C  0.89664077  0.41763355  0.71758560    -0.15600
C1503       C  0.91548632  0.43555540  0.71726823     0.03400
C1504       C  0.93435894  0.43493425  0.73553377    -0.10900
C1505       C  0.93466605  0.41548434  0.75307521    -0.00900
C1506       C  0.91615006  0.39718922  0.75297120    -0.06100
H1507       H  0.88204491  0.41843110  0.70367063     0.06400
H1508       H  0.94935019  0.41458024  0.76689462     0.09800
Br1509     Br  0.85569811  0.40361359  0.77905890    -0.05800
Br1510     Br  0.85995400  0.32159517  0.68623049    -0.02700
Br1511     Br  0.91510861  0.46003623  0.69109352     0.00100
Br1512     Br  0.91894426  0.37008554  0.77620725    -0.04200
C1513       C  0.73220396  0.15906839  0.65712307    -0.11600
C1514       C  0.71821208  0.13678976  0.65924421     0.03800
C1515       C  0.71862388  0.11916881  0.63992861    -0.12200
C1516       C  0.73305896  0.12299384  0.61848906     0.18700
C1517       C  0.74627108  0.14549078  0.61586779    -0.09200
C1518       C  0.74582579  0.16320635  0.63507016    -0.02200
H1519       H  0.70855541  0.10182017  0.64216841     0.05200
C1520       C  0.73571997  0.10250707  0.60009900     0.20700
H1521       H  0.75655405  0.18014223  0.63291406     0.10400
C1522       C  0.71585954  0.09648456  0.58420446    -0.15600
C1523       C  0.71816651  0.07724955  0.56662696     0.03400
C1524       C  0.74057426  0.06374230  0.56481975    -0.10900
C1525       C  0.76019296  0.06940621  0.58107373    -0.00900
C1526       C  0.75784752  0.08847178  0.59873041    -0.06100
H1527       H  0.69860920  0.10684540  0.58539869     0.06400
H1528       H  0.77737657  0.05891844  0.58000279     0.09800
Br1529     Br  0.76561525  0.15252395  0.58657572    -0.05800
Br1530     Br  0.70041460  0.12770457  0.68894250    -0.02700
Br1531     Br  0.69028880  0.06969453  0.54561658     0.00100
Br1532     Br  0.78507739  0.09420882  0.62113865    -0.04200
C1533       C  0.77042154  0.33503862  0.84538045    -0.11600
C1534       C  0.77930606  0.35938543  0.84067146     0.03800
C1535       C  0.77805365  0.37749239  0.85938166    -0.12200
C1536       C  0.76820298  0.37179498  0.88290164     0.18700
C1537       C  0.76026405  0.34733792  0.88800584    -0.09200
C1538       C  0.76117287  0.32923073  0.86921954    -0.02200
H1539       H  0.78409058  0.39633887  0.85534152     0.05200
C1540       C  0.76508619  0.39202567  0.90129276     0.20700
H1541       H  0.75436106  0.31063275  0.87314044     0.10400
C1542       C  0.74152149  0.40278755  0.90448230    -0.15600
C1543       C  0.73800304  0.42237765  0.92133469     0.03400
C1544       C  0.75832254  0.43164636  0.93501543    -0.10900
C1545       C  0.78188983  0.42086656  0.93183187    -0.00900
C1546       C  0.78535736  0.40112715  0.91512204    -0.06100
H1547       H  0.72581881  0.39579620  0.89394018     0.06400
H1548       H  0.79748601  0.42755503  0.94271836     0.09800
Br1549     Br  0.74815519  0.33797120  0.92036308    -0.05800
Br1550     Br  0.79096120  0.36989460  0.80846138    -0.02700
Br1551     Br  0.70505186  0.43525970  0.92597505     0.00100
Br1552     Br  0.81773724  0.38640323  0.91242408    -0.04200
C1553       C  0.66124243  0.15275445  0.77071112    -0.11600
C1554       C  0.64287925  0.15125143  0.78978370     0.03800
C1555       C  0.62548756  0.13167590  0.78977263    -0.12200
C1556       C  0.62564014  0.11336472  0.77109765     0.18700
C1557       C  0.64409549  0.11442515  0.75250355    -0.09200
C1558       C  0.66158906  0.13379189  0.75249256    -0.02200
H1559       H  0.61123402  0.13113512  0.80407173     0.05200
C1560       C  0.60538095  0.09443632  0.77022907     0.20700
H1561       H  0.67540754  0.13412047  0.73783704     0.10400
C1562       C  0.58673363  0.09676828  0.75205106    -0.15600
C1563       C  0.56725025  0.07950131  0.75050940     0.03400
C1564       C  0.56606865  0.05926919  0.76733554    -0.10900
C1565       C  0.58470434  0.05696255  0.78564490    -0.00900
C1566       C  0.60418828  0.07436621  0.78721957    -0.06100
H1567       H  0.58738714  0.11212925  0.73891640     0.06400
H1568       H  0.58414357  0.04149285  0.79865023     0.09800
Br1569     Br  0.64612151  0.08976007  0.72665426    -0.05800
Br1570     Br  0.63904505  0.17569259  0.81572695    -0.02700
Br1571     Br  0.54306153  0.08399101  0.72455250     0.00100
Br1572     Br  0.62914161  0.06970177  0.81236232    -0.04200
C1573       C  0.43406195  0.27057536  0.06589826    -0.11600
C1574       C  0.41396861  0.25363209  0.06599586     0.03800
C1575       C  0.39699874  0.25359508  0.08587611    -0.12200
C1576       C  0.39995051  0.26974739  0.10626005     0.18700
C1577       C  0.42026078  0.28628358  0.10650981    -0.09200
C1578       C  0.43679522  0.28693379  0.08625407    -0.02200
H1579       H  0.38165854  0.24051824  0.08569890     0.05200
C1580       C  0.38162633  0.26889235  0.12701399     0.20700
H1581       H  0.45232507  0.29977437  0.08669491     0.10400
C1582       C  0.38803620  0.25756765  0.14973050    -0.15600
C1583       C  0.37058658  0.25501873  0.16908711     0.03400
C1584       C  0.34592089  0.26395896  0.16585871    -0.10900
C1585       C  0.33998910  0.27602052  0.14321817    -0.00900
C1586       C  0.35746169  0.27839556  0.12397487    -0.06100
H1587       H  0.40666597  0.25030000  0.15225919     0.06400
H1588       H  0.32139124  0.28307942  0.14003464     0.09800
Br1589     Br  0.42636577  0.30794479  0.13431078    -0.05800
Br1590     Br  0.40971479  0.22901567  0.04036712    -0.02700
Br1591     Br  0.38218393  0.23921589  0.19915838     0.00100
Br1592     Br  0.34743858  0.29464689  0.09366998    -0.04200
C1593       C  0.15822327  0.34565092  0.26123395    -0.11600
C1594       C  0.13300749  0.33999821  0.26672403     0.03800
C1595       C  0.11519041  0.35909700  0.26738413    -0.12200
C1596       C  0.12179456  0.38389991  0.26265334     0.18700
C1597       C  0.14690752  0.38975372  0.25826519    -0.09200
C1598       C  0.16480069  0.37076111  0.25747751    -0.02200
H1599       H  0.09585772  0.35444759  0.27066014     0.05200
C1600       C  0.10197327  0.40299836  0.26026998     0.20700
H1601       H  0.18392623  0.37564613  0.25345878     0.10400
C1602       C  0.09279317  0.41506095  0.28161482    -0.15600
C1603       C  0.07393030  0.43303007  0.27964244     0.03400
C1604       C  0.06390980  0.43907964  0.25608129    -0.10900
C1605       C  0.07295598  0.42685792  0.23477690    -0.00900
C1606       C  0.09180632  0.40891830  0.23674117    -0.06100
H1607       H  0.10035646  0.41052630  0.29980861     0.06400
H1608       H  0.06537664  0.43137287  0.21658339     0.09800
Br1609     Br  0.15742122  0.42340853  0.25251025    -0.05800
Br1610     Br  0.12081308  0.30661249  0.27120052    -0.02700
Br1611     Br  0.06223763  0.44892353  0.30949526     0.00100
Br1612     Br  0.10302878  0.39267192  0.20688388    -0.04200
C1613       C  0.26473151  0.16477706  0.34706045    -0.11600
C1614       C  0.26488210  0.17006867  0.37290068     0.03800
C1615       C  0.26815813  0.15065275  0.39025350    -0.12200
C1616       C  0.27200365  0.12601466  0.38224347     0.18700
C1617       C  0.27400580  0.12113777  0.35655726    -0.09200
C1618       C  0.27013692  0.14029029  0.33928406    -0.02200
H1619       H  0.26718464  0.15469154  0.41005112     0.05200
C1620       C  0.27117149  0.10521678  0.40048659     0.20700
H1621       H  0.27053880  0.13574106  0.31959391     0.10400
C1622       C  0.24977668  0.09029345  0.40134409    -0.15600
C1623       C  0.24774149  0.07064203  0.41840172     0.03400
C1624       C  0.26735713  0.06557407  0.43508353    -0.10900
C1625       C  0.28898722  0.08026426  0.43398153    -0.00900
C1626       C  0.29103224  0.09992472  0.41677028    -0.06100
H1627       H  0.23442443  0.09418130  0.38883297     0.06400
H1628       H  0.30415300  0.07660453  0.44677717     0.09800
Br1629     Br  0.28180884  0.08844153  0.34430602    -0.05800
Br1630     Br  0.26191457  0.20340901  0.38544660    -0.02700
Br1631     Br  0.21732299  0.05200059  0.41898042     0.00100
Br1632     Br  0.32127648  0.11878594  0.41575450    -0.04200
C1633       C  0.23870793  0.33640531  0.15139134    -0.11600
C1634       C  0.25117824  0.33381036  0.12809817     0.03800
C1635       C  0.25343869  0.35431650  0.11196263    -0.12200
C1636       C  0.24327504  0.37753850  0.11814196     0.18700
C1637       C  0.22989798  0.37997314  0.14057405    -0.09200
C1638       C  0.22774393  0.35964049  0.15693562    -0.02200
H1639       H  0.26325042  0.35214513  0.09441506     0.05200
C1640       C  0.24615231  0.39877992  0.10055438     0.20700
H1641       H  0.21809567  0.36236946  0.17448093     0.10400
C1642       C  0.22732633  0.40355427  0.08310228    -0.15600
C1643       C  0.22961016  0.42300228  0.06576847     0.03400
C1644       C  0.25098285  0.43825718  0.06575170    -0.10900
C1645       C  0.26973622  0.43364259  0.08341976    -0.00900
C1646       C  0.26751670  0.41400454  0.10064168    -0.06100
H1647       H  0.21086892  0.39192753  0.08282611     0.06400
H1648       H  0.28636893  0.44501600  0.08343928     0.09800
Br1649     Br  0.21488395  0.41103220  0.14987749    -0.05800
Br1650     Br  0.26532792  0.30300542  0.11643414    -0.02700
Br1651     Br  0.20309333  0.42790992  0.04232705     0.00100
Br1652     Br  0.29422508  0.40833842  0.12366593    -0.04200
C1653       C  0.33233635  0.15151854  0.23835201    -0.11600
C1654       C  0.33572218  0.13252920  0.25650375     0.03800
C1655       C  0.35512845  0.11534820  0.25394013    -0.12200
C1656       C  0.37234614  0.11710564  0.23433022     0.18700
C1657       C  0.36861049  0.13547179  0.21580495    -0.09200
C1658       C  0.34874726  0.15228479  0.21788168    -0.02200
H1659       H  0.35747173  0.10106572  0.26807292     0.05200
C1660       C  0.39437210  0.10017435  0.23430708     0.20700
H1661       H  0.34663672  0.16657352  0.20372821     0.10400
C1662       C  0.39913583  0.08487046  0.21356179    -0.15600
C1663       C  0.41939112  0.06842188  0.21336078     0.03400
C1664       C  0.43440973  0.06575265  0.23478784    -0.10900
C1665       C  0.42974446  0.08106948  0.25550154    -0.00900
C1666       C  0.41042658  0.09859646  0.25516988    -0.06100
H1667       H  0.38702917  0.08566591  0.19742587     0.06400
H1668       H  0.44128819  0.07942946  0.27199897     0.09800
Br1669     Br  0.39095786  0.13979251  0.18818768    -0.05800
Br1670     Br  0.31668854  0.13007345  0.28681435    -0.02700
Br1671     Br  0.42575464  0.04978822  0.18348268     0.00100
Br1672     Br  0.40760233  0.12064596  0.28329705    -0.04200
C1673       C  0.93403957  0.24046632  0.43865271    -0.11600
C1674       C  0.92794976  0.26209744  0.42506618     0.03800
C1675       C  0.91071104  0.26079211  0.40550107    -0.12200
C1676       C  0.89919756  0.23813516  0.39937370     0.18700
C1677       C  0.90494916  0.21660838  0.41333040    -0.09200
C1678       C  0.92229255  0.21789818  0.43277411    -0.02200
H1679       H  0.90624104  0.27749453  0.39503433     0.05200
C1680       C  0.88124897  0.23740945  0.37839602     0.20700
H1681       H  0.92697440  0.20116378  0.44309549     0.10400
C1682       C  0.89006534  0.23704609  0.35371672    -0.15600
C1683       C  0.87354202  0.23729440  0.33343057     0.03400
C1684       C  0.84764839  0.23786553  0.33770656    -0.10900
C1685       C  0.83894578  0.23777520  0.36251815    -0.00900
C1686       C  0.85546562  0.23774670  0.38272302    -0.06100
H1687       H  0.90990442  0.23662563  0.35023765     0.06400
H1688       H  0.81916031  0.23856766  0.36625401     0.09800
Br1689     Br  0.89002120  0.18498267  0.40614442    -0.05800
Br1690     Br  0.94272210  0.29368871  0.43276015    -0.02700
Br1691     Br  0.88732146  0.23572746  0.30041924     0.00100
Br1692     Br  0.84208204  0.23925974  0.41593067    -0.04200
C1693       C  0.15658585  0.24184062  0.66408286    -0.11600
C1694       C  0.14248085  0.22013191  0.65980724     0.03800
C1695       C  0.12407028  0.22011686  0.64126583    -0.12200
C1696       C  0.11956731  0.24142419  0.62663049     0.18700
C1697       C  0.13307314  0.26335684  0.63154666    -0.09200
C1698       C  0.15123822  0.26342914  0.65016977    -0.02200
H1699       H  0.11336072  0.20332802  0.63806330     0.05200
C1700       C  0.10107892  0.24039247  0.60609640     0.20700
H1701       H  0.16190037  0.28029648  0.65315110     0.10400
C1702       C  0.08034313  0.25625924  0.60670184    -0.15600
C1703       C  0.06323439  0.25661781  0.58704709     0.03400
C1704       C  0.06587913  0.23987764  0.56688761    -0.10900
C1705       C  0.08654540  0.22385291  0.56637968    -0.00900
C1706       C  0.10434737  0.22440935  0.58546011    -0.06100
H1707       H  0.07779022  0.26887683  0.62228270     0.06400
H1708       H  0.08899186  0.21109033  0.55090576     0.09800
Br1709     Br  0.12868071  0.29329615  0.61233404    -0.05800
Br1710     Br  0.14680818  0.19049244  0.67941087    -0.02700
Br1711     Br  0.03732232  0.28124177  0.58799594     0.00100
Br1712     Br  0.13359195  0.20422401  0.58171911    -0.04200
C1713       C  0.84612887  0.22688106  0.66467896    -0.11600
C1714       C  0.84137265  0.21798089  0.64031513     0.03800
C1715       C  0.86004468  0.21883690  0.62213886    -0.12200
C1716       C  0.88374668  0.22817642  0.62768873     0.18700
C1717       C  0.88865534  0.23684427  0.65205235    -0.09200
C1718       C  0.86987262  0.23631552  0.67021709    -0.02200
H1719       H  0.85588075  0.21264426  0.60334244     0.05200
C1720       C  0.90265676  0.22953351  0.60751867     0.20700
H1721       H  0.87377671  0.24347710  0.68871811     0.10400
C1722       C  0.91165725  0.25291389  0.59986221    -0.15600
C1723       C  0.92919141  0.25485526  0.58064209     0.03400
C1724       C  0.93775579  0.23322866  0.56853910    -0.10900
C1725       C  0.92854260  0.20990635  0.57583534    -0.00900
C1726       C  0.91117790  0.20790558  0.59519949    -0.06100
H1727       H  0.90495186  0.26971367  0.60883672     0.06400
H1728       H  0.93508779  0.19320542  0.56655901     0.09800
Br1729     Br  0.92077515  0.24922154  0.66151666    -0.05800
Br1730     Br  0.80914922  0.20666756  0.62988104    -0.02700
Br1731     Br  0.94094228  0.28732459  0.57132151     0.00100
Br1732     Br  0.90032627  0.17515627  0.60461305    -0.04200
C1733       C  0.06294255  0.23966748  0.43607640    -0.11600
C1734       C  0.06743985  0.26113861  0.42169849     0.03800
C1735       C  0.08413748  0.26009342  0.40172618    -0.12200
C1736       C  0.09590360  0.23760746  0.39540136     0.18700
C1737       C  0.09100043  0.21601013  0.40957309    -0.09200
C1738       C  0.07477507  0.21723255  0.42991840    -0.02200
H1739       H  0.08788342  0.27681968  0.39101675     0.05200
C1740       C  0.11414916  0.23726251  0.37478037     0.20700
H1741       H  0.07084801  0.20052090  0.44058820     0.10400
C1742       C  0.13913993  0.23285655  0.38047944    -0.15600
C1743       C  0.15731450  0.23305437  0.36187493     0.03400
C1744       C  0.15053720  0.23757465  0.33668925    -0.10900
C1745       C  0.12537169  0.24212068  0.33107443    -0.00900
C1746       C  0.10724079  0.24200674  0.34987150    -0.06100
H1747       H  0.14461774  0.22978134  0.39971924     0.06400
H1748       H  0.11977941  0.24596032  0.31201816     0.09800
Br1749     Br  0.10496362  0.18421857  0.40101006    -0.05800
Br1750     Br  0.05068538  0.29197279  0.42847387    -0.02700
Br1751     Br  0.19109758  0.22931807  0.37301806     0.00100
Br1752     Br  0.07328705  0.24810876  0.34068118    -0.04200
loop_ 
_geom_bond_atom_site_label_1 
_geom_bond_atom_site_label_2 
_geom_bond_distance 
_geom_bond_site_symmetry_2 
_ccdc_geom_bond_type 
N1            C6   1.353   1_455  A
N1            C5   1.354       .  A
N1           H33   1.039       .  S
N2            C9   1.352       .  A
N2           C10   1.350       .  A
N3            C8   1.354       .  A
N3            C7   1.352   1_655  A
N3           H34   1.037       .  S
N4           C11   1.350       .  A
N4           C12   1.352       .  A
C5           C13   1.386       .  A
C5           C21   1.415       .  A
C6           C22   1.415       .  A
C6           C14   1.388       .  A
C7           C15   1.388       .  A
C7           C24   1.414       .  A
C8           C23   1.414       .  A
C8           C16   1.386       .  A
C9           C21   1.414       .  A
C9           C17   1.387       .  A
C10          C24   1.412       .  A
C10          C18   1.386       .  A
C11          C19   1.387       .  A
C11          C22   1.413       .  A
C12          C20   1.385       .  A
C12          C23   1.411       .  A
C13          C14   1.375   1_455  A
C13          H25   1.082       .  S
C14          H26   1.082       .  S
C15          C16   1.373   1_455  A
C15          H27   1.082       .  S
C16          H28   1.082       .  S
C17          C18   1.375       .  A
C17          H29   1.082       .  S
C18          H30   1.082       .  S
C19          C20   1.374       .  A
C19          H31   1.082       .  S
C20          H32   1.082       .  S
C21        C1704   1.494       .  S
C22        C1724   1.484       .  S
C23        C1673   1.487       .  S
C24        C1733   1.479       .  S
O35         Mg37   2.138       .  S
O35         Mg43   2.157       .  S
O35          C70   1.235       .  S
C36          H75   1.081       .  S
C36          O49   1.234       .  S
C36          O73   1.269       .  A
Mg37         O66   2.157       .  S
Mg37         O81   2.281       .  S
Mg37         O77   2.251       .  S
Mg37         O48   2.293       .  S
O38         Mg80   2.167       .  S
O38         Mg63   2.167       .  S
O38          C59   1.236       .  S
O39          C70   1.270       .  A
O39         Mg63   2.298       .  S
C40        C1584   1.497       .  S
C40          O42   1.270       .  A
C40          O54   1.278       .  A
O41          C69   1.269       .  A
O41         Mg43   2.290       .  S
O42         Mg74   2.264       .  S
Mg43         O49   2.163       .  S
Mg43         O57   2.309       .  S
Mg43         O45   2.302       .  S
C44        C1633   1.499       .  S
C44          O82   1.269       .  A
C44          O50   1.280       .  A
O45          C52   1.275       .  A
H46          C59   1.081       .  S
C47          H72   1.081       .  S
C47          O61   1.235       .  S
C47          O62   1.271       .  A
O48          C71   1.269       .  A
O49         Mg63   2.159       .  S
O50         Mg80   2.342       .  S
C51        C1593   1.493       .  S
C51          O64   1.276       .  A
C51          O56   1.275       .  A
C52        C1744   1.484       .  S
C52          O79   1.274       .  A
Mg53         O60   2.147       .  S
Mg53         O61   2.156       .  S
Mg53         O54   2.322       .  S
Mg53         O55   2.309       .  S
Mg53         O82   2.254       .  S
O55          C59   1.271       .  A
O56         Mg63   2.313       .  S
O57          C76   1.277       .  A
O58          C78   1.277       .  A
O58         Mg74   2.320       .  S
O60         Mg74   2.160       .  S
O60          C71   1.235       .  S
O61         Mg80   2.168       .  S
O62         Mg74   2.308       .  S
Mg63         O79   2.270       .  S
O64         Mg80   2.291       .  S
H65          C70   1.081       .  S
O66         Mg74   2.137       .  S
O66          C69   1.236       .  S
H67          C69   1.081       .  S
H68          C71   1.081       .  S
O73         Mg80   2.303       .  S
C76        C1613   1.489       .  S
C76          O81   1.272       .  A
O77          C78   1.269       .  A
C78        C1653   1.492       .  S
O83         Mg85   2.162       .  S
O83         Mg91   2.154       .  S
O83         C118   1.236       .  S
C84         H123   1.081       .  S
C84          O97   1.235       .  S
C84         O121   1.270       .  A
Mg85        O114   2.155       .  S
Mg85        O129   2.304       .  S
Mg85        O125   2.285       .  S
Mg85         O96   2.297       .  S
O86        Mg128   2.161       .  S
O86        Mg111   2.153       .  S
O86         C107   1.236       .  S
O87         C118   1.271       .  A
O87        Mg111   2.306       .  S
C88        C1533   1.477       .  S
C88          O90   1.270       .  A
C88         O102   1.275       .  A
O89         C117   1.270       .  A
O89         Mg91   2.302       .  S
O90        Mg122   2.259       .  S
Mg91         O97   2.166       .  S
Mg91        O105   2.284       .  S
Mg91         O93   2.318       .  S
C92        C1473   1.490       .  S
C92         O130   1.271       .  A
C92          O98   1.278       .  A
O93         C100   1.278       .  A
H94         C107   1.081       .  S
C95         H120   1.081       .  S
C95         O109   1.236       .  S
C95         O110   1.271       .  A
O96         C119   1.269       .  A
O97        Mg111   2.163       .  S
O98        Mg128   2.318       .  S
C99        C1553   1.504       .  S
C99         O112   1.274       .  A
C99         O104   1.280       .  A
C100       C1513   1.490       .  S
C100        O127   1.273       .  A
Mg101       O108   2.153       .  S
Mg101       O109   2.158       .  S
Mg101       O102   2.306       .  S
Mg101       O103   2.300       .  S
Mg101       O130   2.267       .  S
O103        C107   1.270       .  A
O104       Mg111   2.331       .  S
O105        C124   1.274       .  A
O106        C126   1.276       .  A
O106       Mg122   2.306       .  S
O108       Mg122   2.157       .  S
O108        C119   1.235       .  S
O109       Mg128   2.161       .  S
O110       Mg122   2.305       .  S
Mg111       O127   2.279       .  S
O112       Mg128   2.293       .  S
H113        C118   1.081       .  S
O114       Mg122   2.141       .  S
O114        C117   1.236       .  S
H115        C117   1.081       .  S
H116        C119   1.081       .  S
O121       Mg128   2.302       .  S
C124       C1713   1.482       .  S
C124        O129   1.275       .  A
O125        C126   1.272       .  A
C126       C1493   1.497       .  S
N131        C136   1.359       .  A
N131        C135   1.359       .  A
N131        H163   1.029       .  S
N132        C139   1.353   1_565  A
N132        C140   1.356       .  A
N133        C138   1.352       .  A
N133        C137   1.353       .  A
N133        H164   1.034       .  S
N134        C141   1.353       .  A
N134        C142   1.354   1_545  A
C135        C143   1.387       .  A
C135        C151   1.426       .  A
C136        C152   1.425       .  A
C136        C144   1.387       .  A
C137        C145   1.386       .  A
C137        C154   1.412       .  A
C138        C153   1.412       .  A
C138        C146   1.387       .  A
C139        C151   1.421       .  A
C139        C147   1.388       .  A
C140        C154   1.419       .  A
C140        C148   1.385       .  A
C141        C149   1.389       .  A
C141        C152   1.420       .  A
C142        C150   1.384       .  A
C142        C153   1.415       .  A
C143        C144   1.377       .  A
C143        H155   1.082       .  S
C144        H156   1.081       .  S
C145        C146   1.372       .  A
C145        H157   1.082       .  S
C146        H158   1.083       .  S
C147        C148   1.377   1_545  A
C147        H159   1.082       .  S
C148        H160   1.082       .  S
C149        C150   1.372   1_545  A
C149        H161   1.081       .  S
C150        H162   1.082       .  S
C151       C1444   1.503       .  S
C152       C1664   1.497       .  S
C153       C1413   1.490       .  S
C154       C1453   1.497       .  S
O165       Mg167   2.151       .  S
O165       Mg173   2.160       .  S
O165        C200   1.235       .  S
C166        H205   1.081       .  S
C166        O179   1.236       .  S
C166        O203   1.271       .  A
Mg167       O196   2.151       .  S
Mg167       O211   2.302       .  S
Mg167       O207   2.261       .  S
Mg167       O178   2.300       .  S
O168       Mg210   2.154       .  S
O168       Mg193   2.157       .  S
O168        C189   1.236       .  S
O169        C200   1.269       .  A
O169       Mg193   2.299       .  S
C170       C1384   1.498       .  S
C170        O172   1.275       .  A
C170        O184   1.276       .  A
O171        C199   1.271       .  A
O171       Mg173   2.309       .  S
O172       Mg204   2.284       .  S
Mg173       O179   2.161       .  S
Mg173       O187   2.301       .  S
Mg173       O175   2.336       .  S
C174       C1333   1.486       .  S
C174        O212   1.275       .  A
C174        O180   1.275       .  A
O175        C182   1.279       .  A
H176        C189   1.081       .  S
C177        H202   1.081       .  S
C177        O191   1.235       .  S
C177        O192   1.269       .  A
O178        C201   1.271       .  A
O179       Mg193   2.162       .  S
O180       Mg210   2.306       .  S
C181       C1393   1.496       .  S
C181        O194   1.270       .  A
C181        O186   1.275       .  A
C182       C1353   1.488       .  S
C182        O209   1.272       .  A
Mg183       O190   2.150       .  S
Mg183       O191   2.159       .  S
Mg183       O184   2.315       .  S
Mg183       O185   2.303       .  S
Mg183       O212   2.286       .  S
O185        C189   1.271       .  A
O186       Mg193   2.308       .  S
O187        C206   1.275       .  A
O188        C208   1.276       .  A
O188       Mg204   2.317       .  S
O190       Mg204   2.161       .  S
O190        C201   1.236       .  S
O191       Mg210   2.144       .  S
O192       Mg204   2.295       .  S
Mg193       O209   2.265       .  S
O194       Mg210   2.266       .  S
H195        C200   1.081       .  S
O196       Mg204   2.166       .  S
O196        C199   1.236       .  S
H197        C199   1.081       .  S
H198        C201   1.081       .  S
O203       Mg210   2.303       .  S
C206       C1464   1.486       .  S
C206        O211   1.275       .  A
O207        C208   1.271       .  A
C208       C1324   1.481       .  S
N213        C218   1.353       .  A
N213        C217   1.354       .  A
N213        H245   1.040       .  S
N214        C221   1.354       .  A
N214        C222   1.352   1_655  A
N215        C220   1.355       .  A
N215        C219   1.353       .  A
N215        H246   1.041       .  S
N216        C223   1.351       .  A
N216        C224   1.353   1_655  A
C217        C225   1.386       .  A
C217        C233   1.414       .  A
C218        C234   1.416       .  A
C218        C226   1.388       .  A
C219        C227   1.387       .  A
C219        C236   1.416       .  A
C220        C235   1.417       .  A
C220        C228   1.387       .  A
C221        C233   1.416       .  A
C221        C229   1.385       .  A
C222        C236   1.417       .  A
C222        C230   1.387       .  A
C223        C231   1.386       .  A
C223        C234   1.415       .  A
C224        C232   1.386       .  A
C224        C235   1.416       .  A
C225        C226   1.374       .  A
C225        H237   1.082       .  S
C226        H238   1.082       .  S
C227        C228   1.375       .  A
C227        H239   1.082       .  S
C228        H240   1.082       .  S
C229        C230   1.378   1_655  A
C229        H241   1.082       .  S
C230        H242   1.082       .  S
C231        C232   1.377   1_655  A
C231        H243   1.082       .  S
C232        H244   1.082       .  S
C233       C1284   1.495       .  S
C234       C1404   1.492       .  S
C235       C1253   1.499       .  S
C236       C1293   1.491       .  S
O247       Mg249   2.160       .  S
O247       Mg255   2.161       .  S
O247        C282   1.237       .  S
C248        H287   1.081       .  S
C248        O261   1.236       .  S
C248        O285   1.271       .  A
Mg249       O278   2.162       .  S
Mg249       O293   2.330       .  S
Mg249       O289   2.298       .  S
Mg249       O260   2.301       .  S
O250       Mg292   2.151       .  S
O250       Mg275   2.145       .  S
O250        C271   1.236       .  S
O251        C282   1.272       .  A
O251       Mg275   2.305       .  S
C252       C1153   1.497       .  S
C252        O254   1.273       .  A
C252        O266   1.279       .  A
O253        C281   1.269       .  A
O253       Mg255   2.295       .  S
O254       Mg286   2.278       .  S
Mg255       O261   2.151       .  S
Mg255       O269   2.253       .  S
Mg255       O257   2.300       .  S
C256       C1244   1.491       .  S
C256        O294   1.275       .  A
C256        O262   1.278       .  A
O257        C264   1.273       .  A
H258        C271   1.081       .  S
C259        H284   1.081       .  S
C259        O273   1.236       .  S
C259        O274   1.271       .  A
O260        C283   1.270       .  A
O261       Mg275   2.151       .  S
O262       Mg292   2.315       .  S
C263       C1193   1.500       .  S
C263        O276   1.277       .  A
C263        O268   1.274       .  A
C264       C1304   1.486       .  S
C264        O291   1.272       .  A
Mg265       O272   2.161       .  S
Mg265       O273   2.169       .  S
Mg265       O266   2.330       .  S
Mg265       O267   2.300       .  S
Mg265       O294   2.284       .  S
O267        C271   1.270       .  A
O268       Mg275   2.313       .  S
O269        C288   1.272       .  A
O270        C290   1.275       .  A
O270       Mg286   2.308       .  S
O272       Mg286   2.157       .  S
O272        C283   1.236       .  S
O273       Mg292   2.165       .  S
O274       Mg286   2.300       .  S
Mg275       O291   2.269       .  S
O276       Mg292   2.309       .  S
H277        C282   1.081       .  S
O278       Mg286   2.148       .  S
O278        C281   1.235       .  S
H279        C281   1.081       .  S
H280        C283   1.081       .  S
O285       Mg292   2.305       .  S
C288       C1184   1.497       .  S
C288        O293   1.277       .  A
O289        C290   1.277       .  A
C290       C1213   1.501       .  S
N295        C300   1.353       .  A
N295        C299   1.353       .  A
N295        H327   1.039       .  S
N296        C303   1.354   1_545  A
N296        C304   1.352       .  A
N297        C302   1.356       .  A
N297        C301   1.356       .  A
N297        H328   1.039       .  S
N298        C305   1.353       .  A
N298        C306   1.354   1_565  A
C299        C307   1.388       .  A
C299        C315   1.414       .  A
C300        C316   1.413       .  A
C300        C308   1.386       .  A
C301        C309   1.387       .  A
C301        C318   1.420       .  A
C302        C317   1.421       .  A
C302        C310   1.387       .  A
C303        C315   1.414       .  A
C303        C311   1.385       .  A
C304        C318   1.418       .  A
C304        C312   1.388       .  A
C305        C313   1.386       .  A
C305        C316   1.415       .  A
C306        C314   1.387       .  A
C306        C317   1.417       .  A
C307        C308   1.374       .  A
C307        H319   1.082       .  S
C308        H320   1.082       .  S
C309        C310   1.380       .  A
C309        H321   1.082       .  S
C310        H322   1.082       .  S
C311        C312   1.376   1_565  A
C311        H323   1.082       .  S
C312        H324   1.082       .  S
C313        C314   1.375   1_565  A
C313        H325   1.082       .  S
C314        H326   1.082       .  S
C315       C1233   1.490       .  S
C316       C1133   1.487       .  S
C317       C1564   1.500       .  S
C318       C1113   1.494       .  S
N329        C334   1.356   1_556  A
N329        C333   1.358       .  A
N329        H361   1.039       .  S
N330        C337   1.352       .  A
N330        C338   1.353       .  A
N331        C336   1.353       .  A
N331        C335   1.353   1_554  A
N331        H362   1.039       .  S
N332        C339   1.353       .  A
N332        C340   1.356       .  A
C333        C341   1.387       .  A
C333        C349   1.424       .  A
C334        C350   1.423       .  A
C334        C342   1.387       .  A
C335        C343   1.386       .  A
C335        C352   1.413       .  A
C336        C351   1.415       .  A
C336        C344   1.387       .  A
C337        C349   1.417       .  A
C337        C345   1.388       .  A
C338        C352   1.412       .  A
C338        C346   1.385       .  A
C339        C347   1.388       .  A
C339        C350   1.420       .  A
C340        C348   1.385       .  A
C340        C351   1.417       .  A
C341        C342   1.381   1_556  A
C341        H353   1.082       .  S
C342        H354   1.082       .  S
C343        C344   1.375   1_556  A
C343        H355   1.082       .  S
C344        H356   1.082       .  S
C345        C346   1.372       .  A
C345        H357   1.082       .  S
C346        H358   1.082       .  S
C347        C348   1.375       .  A
C347        H359   1.082       .  S
C348        H360   1.082       .  S
C349       C1224   1.500       .  S
C350       C1104   1.498       .  S
C351       C1644   1.496       .  S
C352       C1084   1.487       .  S
N363        C368   1.351   1_556  A
N363        C367   1.353       .  A
N363        H395   1.036   1_556  S
N364        C371   1.352       .  A
N364        C372   1.351       .  A
N365        C370   1.355       .  A
N365        C369   1.355   1_554  A
N365        H396   1.035       .  S
N366        C373   1.354       .  A
N366        C374   1.354       .  A
C367        C375   1.387       .  A
C367        C383   1.413       .  A
C368        C384   1.413       .  A
C368        C376   1.388       .  A
C369        C377   1.387       .  A
C369        C386   1.419       .  A
C370        C385   1.420       .  A
C370        C378   1.387       .  A
C371        C383   1.412       .  A
C371        C379   1.385       .  A
C372        C386   1.416       .  A
C372        C380   1.388       .  A
C373        C381   1.385       .  A
C373        C384   1.417       .  A
C374        C382   1.387       .  A
C374        C385   1.420       .  A
C375        C376   1.371   1_556  A
C375        H387   1.082       .  S
C376        H388   1.083       .  S
C377        C378   1.378   1_556  A
C377        H389   1.082       .  S
C378        H390   1.082       .  S
C379        C380   1.373       .  A
C379        H391   1.082       .  S
C380        H392   1.082       .  S
C381        C382   1.375       .  A
C381        H393   1.082       .  S
C382        H394   1.082       .  S
C383       C1544   1.485       .  S
C384       C1044   1.487       .  S
C385       C1373   1.495       .  S
C386       C1053   1.489       .  S
O397       Mg399   2.144       .  S
O397       Mg405   2.161       .  S
O397        C432   1.235       .  S
C398        H437   1.081       .  S
C398        O411   1.235       .  S
C398        O435   1.269       .  A
Mg399       O428   2.158       .  S
Mg399       O443   2.318       .  S
Mg399       O439   2.271       .  S
Mg399       O410   2.301       .  S
O400       Mg442   2.155       .  S
O400       Mg425   2.152       .  S
O400        C421   1.235       .  S
O401        C432   1.268       .  A
O401       Mg425   2.292       .  S
C402       C1273   1.501       .  S
C402        O404   1.274       .  A
C402        O416   1.276       .  A
O403        C431   1.270       .  A
O403       Mg405   2.297       .  S
O404       Mg436   2.283       .  S
Mg405       O411   2.153       .  S
Mg405       O419   2.273       .  S
Mg405       O407   2.319       .  S
C406       C1004   1.487       .  S
C406        O444   1.272       .  A
C406        O412   1.276       .  A
O407        C414   1.276       .  A
H408        C421   1.081       .  S
C409        H434   1.081       .  S
C409        O423   1.237       .  S
C409        O424   1.272       .  A
O410        C433   1.271       .  A
O411       Mg425   2.160       .  S
O412       Mg442   2.309       .  S
C413       C1064   1.503       .  S
C413        O426   1.276       .  A
C413        O418   1.274       .  A
C414        C973   1.496       .  S
C414        O441   1.274       .  A
Mg415       O422   2.152       .  S
Mg415       O423   2.164       .  S
Mg415       O416   2.325       .  S
Mg415       O417   2.303       .  S
Mg415       O444   2.265       .  S
O417        C421   1.270       .  A
O418       Mg425   2.315       .  S
O419        C438   1.273       .  A
O420        C440   1.276       .  A
O420       Mg436   2.317       .  S
O422       Mg436   2.154       .  S
O422        C433   1.236       .  S
O423       Mg442   2.172       .  S
O424       Mg436   2.309       .  S
Mg425       O441   2.266       .  S
O426       Mg442   2.290       .  S
H427        C432   1.081       .  S
O428       Mg436   2.149       .  S
O428        C431   1.236       .  S
H429        C431   1.081       .  S
H430        C433   1.081       .  S
O435       Mg442   2.299       .  S
C438       C1144   1.485       .  S
C438        O443   1.278       .  A
O439        C440   1.274       .  A
C440       C1013   1.494       .  S
N445        C450   1.355       .  A
N445        C449   1.355       .  A
N445        H477   1.037       .  S
N446        C453   1.353       .  A
N446        C454   1.354   1_565  A
N447        C452   1.353       .  A
N447        C451   1.353       .  A
N447        H478   1.035       .  S
N448        C455   1.352       .  A
N448        C456   1.353   1_565  A
C449        C457   1.387       .  A
C449        C465   1.418       .  A
C450        C466   1.419       .  A
C450        C458   1.387       .  A
C451        C459   1.388       .  A
C451        C468   1.417       .  A
C452        C467   1.417       .  A
C452        C460   1.387       .  A
C453        C465   1.418       .  A
C453        C461   1.387       .  A
C454        C468   1.417       .  A
C454        C462   1.386       .  A
C455        C463   1.387       .  A
C455        C466   1.416       .  A
C456        C464   1.386       .  A
C456        C467   1.416       .  A
C457        C458   1.376       .  A
C457        H469   1.082       .  S
C458        H470   1.082       .  S
C459        C460   1.375       .  A
C459        H471   1.082       .  S
C460        H472   1.082       .  S
C461        C462   1.374   1_565  A
C461        H473   1.082       .  S
C462        H474   1.082       .  S
C463        C464   1.372   1_565  A
C463        H475   1.082       .  S
C464        H476   1.082       .  S
C465       C1364   1.491       .  S
C466       C1024   1.491       .  S
C467       C1524   1.490       .  S
C468        C953   1.489       .  S
O479       Mg481   2.151       .  S
O479       Mg487   2.156       .  S
O479        C514   1.235       .  S
C480        H519   1.081       .  S
C480        O493   1.235       .  S
C480        O517   1.270       .  A
Mg481       O510   2.150       .  S
Mg481       O525   2.286       .  S
Mg481       O521   2.270       .  S
Mg481       O492   2.300       .  S
O482       Mg524   2.157       .  S
O482       Mg507   2.136       .  S
O482        C503   1.233       .  S
O483        C514   1.269       .  A
O483       Mg507   2.296       .  S
C484       C1684   1.486       .  S
C484        O486   1.273       .  A
C484        O498   1.275       .  A
O485        C513   1.272       .  A
O485       Mg487   2.309       .  S
O486       Mg518   2.280       .  S
Mg487       O493   2.172       .  S
Mg487       O501   2.303       .  S
Mg487       O489   2.336       .  S
C488        C964   1.493       .  S
C488        O526   1.270       .  A
C488        O494   1.278       .  A
O489        C496   1.280       .  A
H490        C503   1.081       .  S
C491        H516   1.081       .  S
C491        O505   1.235       .  S
C491        O506   1.270       .  A
O492        C515   1.270       .  A
O493       Mg507   2.168       .  S
O494       Mg524   2.317       .  S
C495       C1433   1.491       .  S
C495        O508   1.275       .  A
C495        O500   1.280       .  A
C496        C913   1.495       .  S
C496        O523   1.270       .  A
Mg497       O504   2.156       .  S
Mg497       O505   2.173       .  S
Mg497       O498   2.303       .  S
Mg497       O499   2.292       .  S
Mg497       O526   2.258       .  S
O499        C503   1.267       .  A
O500       Mg507   2.333       .  S
O501        C520   1.277       .  A
O502        C522   1.276       .  A
O502       Mg518   2.324       .  S
O504       Mg518   2.167       .  S
O504        C515   1.236       .  S
O505       Mg524   2.170       .  S
O506       Mg518   2.303       .  S
Mg507       O523   2.250       .  S
O508       Mg524   2.297       .  S
H509        C514   1.081       .  S
O510       Mg518   2.153       .  S
O510        C513   1.237       .  S
H511        C513   1.081       .  S
H512        C515   1.081       .  S
O517       Mg524   2.303       .  S
C520       C1033   1.491       .  S
C520        O525   1.271       .  A
O521        C522   1.272       .  A
C522        C944   1.495       .  S
N527        C532   1.351   1_455  A
N527        C531   1.353       .  A
N527        H559   1.039   1_455  S
N528        C535   1.354       .  A
N528        C536   1.352       .  A
N529        C534   1.358       .  A
N529        C533   1.356   1_655  A
N529        H560   1.037       .  S
N530        C537   1.353       .  A
N530        C538   1.353       .  A
C531        C539   1.387       .  A
C531        C547   1.414       .  A
C532        C548   1.412       .  A
C532        C540   1.387       .  A
C533        C541   1.387       .  A
C533        C550   1.422       .  A
C534        C549   1.423       .  A
C534        C542   1.387       .  A
C535        C547   1.416       .  A
C535        C543   1.385       .  A
C536        C550   1.417       .  A
C536        C544   1.387       .  A
C537        C545   1.385       .  A
C537        C548   1.416       .  A
C538        C546   1.387       .  A
C538        C549   1.419       .  A
C539        C540   1.375   1_455  A
C539        H551   1.082       .  S
C540        H552   1.082       .  S
C541        C542   1.377   1_455  A
C541        H553   1.082       .  S
C542        H554   1.082       .  S
C543        C544   1.375       .  A
C543        H555   1.082       .  S
C544        H556   1.082       .  S
C545        C546   1.375       .  A
C545        H557   1.082       .  S
C546        H558   1.082       .  S
C547        C904   1.494       .  S
C548       C1344   1.487       .  S
C549        C933   1.498       .  S
C550       C1604   1.491       .  S
O561       Mg563   2.147       .  S
O561       Mg569   2.144       .  S
O561        C596   1.234       .  S
C562        H601   1.081       .  S
C562        O575   1.238       .  S
C562        O599   1.272       .  A
Mg563       O592   2.156       .  S
Mg563       O607   2.303       .  S
Mg563       O603   2.254       .  S
Mg563       O574   2.298       .  S
O564       Mg606   2.149       .  S
O564       Mg589   2.153       .  S
O564        C585   1.236       .  S
O565        C596   1.269       .  A
O565       Mg589   2.296       .  S
C566        C873   1.488       .  S
C566        O568   1.275       .  A
C566        O580   1.277       .  A
O567        C595   1.274       .  A
O567       Mg569   2.319       .  S
O568       Mg600   2.286       .  S
Mg569       O575   2.147       .  S
Mg569       O583   2.283       .  S
Mg569       O571   2.339       .  S
C570       C1424   1.482       .  S
C570        O608   1.273       .  A
C570        O576   1.273       .  A
O571        C578   1.279       .  A
H572        C585   1.081       .  S
C573        H598   1.081       .  S
C573        O587   1.234       .  S
C573        O588   1.269       .  A
O574        C597   1.270       .  A
O575       Mg589   2.160       .  S
O576       Mg606   2.294       .  S
C577        C853   1.479       .  S
C577        O590   1.272       .  A
C577        O582   1.274       .  A
C578       C1093   1.499       .  S
C578        O605   1.274       .  A
Mg579       O586   2.147       .  S
Mg579       O587   2.159       .  S
Mg579       O580   2.323       .  S
Mg579       O581   2.301       .  S
Mg579       O608   2.274       .  S
O581        C585   1.270       .  A
O582       Mg589   2.299       .  S
O583        C602   1.274       .  A
O584        C604   1.276       .  A
O584       Mg600   2.309       .  S
O586       Mg600   2.156       .  S
O586        C597   1.236       .  S
O587       Mg606   2.145       .  S
O588       Mg600   2.298       .  S
Mg589       O605   2.278       .  S
O590       Mg606   2.269       .  S
H591        C596   1.081       .  S
O592       Mg600   2.174       .  S
O592        C595   1.238       .  S
H593        C595   1.081       .  S
H594        C597   1.081       .  S
O599       Mg606   2.302       .  S
C602        C893   1.486       .  S
C602        O607   1.273       .  A
O603        C604   1.268       .  A
C604       C1264   1.492       .  S
N609        C614   1.354       .  A
N609        C613   1.355       .  A
N609        H641   1.039       .  S
N610        C617   1.353       .  A
N610        C618   1.353   1_545  A
N611        C616   1.356       .  A
N611        C615   1.356       .  A
N611        H642   1.037       .  S
N612        C619   1.354       .  A
N612        C620   1.354   1_545  A
C613        C621   1.387       .  A
C613        C629   1.416       .  A
C614        C630   1.416       .  A
C614        C622   1.387       .  A
C615        C623   1.387       .  A
C615        C632   1.422       .  A
C616        C631   1.421       .  A
C616        C624   1.387       .  A
C617        C629   1.416       .  A
C617        C625   1.385       .  A
C618        C632   1.418       .  A
C618        C626   1.387       .  A
C619        C627   1.386       .  A
C619        C630   1.417       .  A
C620        C628   1.387       .  A
C620        C631   1.419       .  A
C621        C622   1.374       .  A
C621        H633   1.082       .  S
C622        H634   1.082       .  S
C623        C624   1.378       .  A
C623        H635   1.082       .  S
C624        H636   1.082       .  S
C625        C626   1.375   1_545  A
C625        H637   1.082       .  S
C626        H638   1.082       .  S
C627        C628   1.375   1_545  A
C627        H639   1.082       .  S
C628        H640   1.082       .  S
C629       C1624   1.493       .  S
C630        C844   1.494       .  S
C631       C1204   1.496       .  S
C632        C884   1.494       .  S
O643       Mg645   2.156       .  S
O643       Mg651   2.151       .  S
O643        C678   1.236       .  S
C644        H683   1.081       .  S
C644        O657   1.233       .  S
C644        O681   1.267       .  A
Mg645       O674   2.158       .  S
Mg645       O689   2.316       .  S
Mg645       O685   2.276       .  S
Mg645       O656   2.298       .  S
O646       Mg688   2.164       .  S
O646       Mg671   2.137       .  S
O646        C667   1.235       .  S
O647        C678   1.271       .  A
O647       Mg671   2.307       .  S
C648        C833   1.492       .  S
C648        O650   1.276       .  A
C648        O662   1.272       .  A
O649        C677   1.271       .  A
O649       Mg651   2.301       .  S
O650       Mg682   2.286       .  S
Mg651       O657   2.137       .  S
Mg651       O665   2.247       .  S
Mg651       O653   2.291       .  S
C652       C1693   1.480       .  S
C652        O690   1.273       .  A
C652        O658   1.271       .  A
O653        C660   1.273       .  A
H654        C667   1.081       .  S
C655        H680   1.081       .  S
C655        O669   1.236       .  S
C655        O670   1.271       .  A
O656        C679   1.269       .  A
O657       Mg671   2.152       .  S
O658       Mg688   2.272       .  S
C659        C824   1.486       .  S
C659        O672   1.270       .  A
C659        O664   1.278       .  A
C660       C1073   1.480       .  S
C660        O687   1.274       .  A
Mg661       O668   2.155       .  S
Mg661       O669   2.165       .  S
Mg661       O662   2.287       .  S
Mg661       O663   2.291       .  S
Mg661       O690   2.284       .  S
O663        C667   1.269       .  A
O664       Mg671   2.326       .  S
O665        C684   1.269       .  A
O666        C686   1.281       .  A
O666       Mg682   2.345       .  S
O668       Mg682   2.161       .  S
O668        C679   1.234       .  S
O669       Mg688   2.149       .  S
O670       Mg682   2.304       .  S
Mg671       O687   2.271       .  S
O672       Mg688   2.250       .  S
H673        C678   1.081       .  S
O674       Mg682   2.152       .  S
O674        C677   1.237       .  S
H675        C677   1.081       .  S
H676        C679   1.081       .  S
O681       Mg688   2.288       .  S
C684        C804   1.479       .  S
C684        O689   1.276       .  A
O685        C686   1.273       .  A
C686       C1124   1.502       .  S
N691        C696   1.353   1_655  A
N691        C695   1.352       .  A
N691        H723   1.040       .  S
N692        C699   1.350       .  A
N692        C700   1.351       .  A
N693        C698   1.351   1_655  A
N693        C697   1.353       .  A
N693        H724   1.039       .  S
N694        C701   1.351       .  A
N694        C702   1.351       .  A
C695        C703   1.387       .  A
C695        C711   1.414       .  A
C696        C712   1.414       .  A
C696        C704   1.387       .  A
C697        C705   1.386       .  A
C697        C714   1.413       .  A
C698        C713   1.415       .  A
C698        C706   1.388       .  A
C699        C711   1.412       .  A
C699        C707   1.387       .  A
C700        C714   1.410       .  A
C700        C708   1.385       .  A
C701        C709   1.386       .  A
C701        C712   1.412       .  A
C702        C710   1.387       .  A
C702        C713   1.414       .  A
C703        C704   1.377   1_655  A
C703        H715   1.082       .  S
C704        H716   1.082       .  S
C705        C706   1.378   1_655  A
C705        H717   1.082       .  S
C706        H718   1.082       .  S
C707        C708   1.372       .  A
C707        H719   1.082       .  S
C708        H720   1.082       .  S
C709        C710   1.375       .  A
C709        H721   1.083       .  S
C710        H722   1.082       .  S
C711       C1504   1.487       .  S
C712        C813   1.486       .  S
C713       C1173   1.487       .  S
C714        C993   1.485       .  S
N725        C730   1.355       .  A
N725        C729   1.353       .  A
N725        H757   1.039       .  S
N726        C733   1.352       .  A
N726        C734   1.354   1_554  A
N727        C732   1.352       .  A
N727        C731   1.354       .  A
N727        H758   1.040       .  S
N728        C735   1.353       .  A
N728        C736   1.352   1_554  A
C729        C737   1.386       .  A
C729        C745   1.415       .  A
C730        C746   1.420       .  A
C730        C738   1.388       .  A
C731        C739   1.387       .  A
C731        C748   1.416       .  A
C732        C747   1.415       .  A
C732        C740   1.388       .  A
C733        C745   1.413       .  A
C733        C741   1.385       .  A
C734        C748   1.417       .  A
C734        C742   1.386       .  A
C735        C743   1.387       .  A
C735        C746   1.418       .  A
C736        C744   1.386       .  A
C736        C747   1.415       .  A
C737        C738   1.376       .  A
C737        H749   1.082       .  S
C738        H750   1.082       .  S
C739        C740   1.378       .  A
C739        H751   1.082       .  S
C740        H752   1.082       .  S
C741        C742   1.372   1_554  A
C741        H753   1.082       .  S
C742        H754   1.082       .  S
C743        C744   1.377   1_554  A
C743        H755   1.082       .  S
C744        H756   1.082       .  S
C745        C924   1.488       .  S
C746       C1573   1.499       .  S
C747        C793   1.486       .  S
C748       C1484   1.500       .  S
N759        C764   1.354   1_556  A
N759        C763   1.354       .  A
N759        H791   1.037   1_556  S
N760        C767   1.353       .  A
N760        C768   1.354       .  A
N761        C766   1.353       .  A
N761        C765   1.354   1_554  A
N761        H792   1.035       .  S
N762        C769   1.353       .  A
N762        C770   1.353       .  A
C763        C771   1.388       .  A
C763        C779   1.419       .  A
C764        C780   1.414       .  A
C764        C772   1.385       .  A
C765        C773   1.387       .  A
C765        C782   1.417       .  A
C766        C781   1.417       .  A
C766        C774   1.388       .  A
C767        C779   1.418       .  A
C767        C775   1.386       .  A
C768        C782   1.418       .  A
C768        C776   1.386       .  A
C769        C777   1.386       .  A
C769        C780   1.415       .  A
C770        C778   1.387       .  A
C770        C781   1.416       .  A
C771        C772   1.374   1_556  A
C771        H783   1.082       .  S
C772        H784   1.082       .  S
C773        C774   1.374   1_556  A
C773        H785   1.082       .  S
C774        H786   1.082       .  S
C775        C776   1.376       .  A
C775        H787   1.082       .  S
C776        H788   1.082       .  S
C777        C778   1.374       .  A
C777        H789   1.082       .  S
C778        H790   1.082       .  S
C779       C1164   1.495       .  S
C780        C864   1.488       .  S
C781       C1313   1.487       .  S
C782        C984   1.492       .  S
C793        C794   1.409       .  A
C793        C798   1.403       .  A
C794        C795   1.399       .  A
C794       Br810   1.917       .  S
C795        C796   1.401       .  A
C795        H799   1.083       .  S
C796        C797   1.408       .  A
C796        C800   1.476       .  S
C797        C798   1.400       .  A
C797       Br809   1.918       .  S
C798        H801   1.083       .  S
C800        C802   1.402       .  A
C800        C806   1.406       .  A
C802        C803   1.401       .  A
C802        H807   1.083       .  S
C803        C804   1.410       .  A
C803       Br811   1.918       .  S
C804        C805   1.407       .  A
C805        C806   1.398       .  A
C805        H808   1.083       .  S
C806       Br812   1.919       .  S
C813        C814   1.408       .  A
C813        C818   1.404       .  A
C814        C815   1.398       .  A
C814       Br830   1.917       .  S
C815        C816   1.403       .  A
C815        H819   1.084       .  S
C816        C817   1.408       .  A
C816        C820   1.478       .  S
C817        C818   1.400       .  A
C817       Br829   1.917       .  S
C818        H821   1.083       .  S
C820        C822   1.399       .  A
C820        C826   1.407       .  A
C822        C823   1.400       .  A
C822        H827   1.084       .  S
C823        C824   1.419       .  A
C823       Br831   1.924       .  S
C824        C825   1.406       .  A
C825        C826   1.400       .  A
C825        H828   1.083       .  S
C826       Br832   1.918       .  S
C833        C834   1.420       .  A
C833        C838   1.407       .  A
C834        C835   1.402       .  A
C834       Br850   1.925       .  S
C835        C836   1.403       .  A
C835        H839   1.084       .  S
C836        C837   1.410       .  A
C836        C840   1.488       .  S
C837        C838   1.399       .  A
C837       Br849   1.920       .  S
C838        H841   1.083       .  S
C840        C842   1.403       .  A
C840        C846   1.413       .  A
C842        C843   1.399       .  A
C842        H847   1.083       .  S
C843        C844   1.411       .  A
C843       Br851   1.918       .  S
C844        C845   1.404       .  A
C845        C846   1.402       .  A
C845        H848   1.083       .  S
C846       Br852   1.919       .  S
C853        C854   1.410       .  A
C853        C858   1.405       .  A
C854        C855   1.400       .  A
C854       Br870   1.919       .  S
C855        C856   1.403       .  A
C855        H859   1.083       .  S
C856        C857   1.409       .  A
C856        C860   1.482       .  S
C857        C858   1.400       .  A
C857       Br869   1.919       .  S
C858        H861   1.084       .  S
C860        C862   1.402       .  A
C860        C866   1.411       .  A
C862        C863   1.400       .  A
C862        H867   1.083       .  S
C863        C864   1.409       .  A
C863       Br871   1.917       .  S
C864        C865   1.402       .  A
C865        C866   1.401       .  A
C865        H868   1.083       .  S
C866       Br872   1.919       .  S
C873        C874   1.415       .  A
C873        C878   1.407       .  A
C874        C875   1.403       .  A
C874       Br890   1.921       .  S
C875        C876   1.402       .  A
C875        H879   1.083       .  S
C876        C877   1.408       .  A
C876        C880   1.486       .  S
C877        C878   1.404       .  A
C877       Br889   1.918       .  S
C878        H881   1.083       .  S
C880        C882   1.403       .  A
C880        C886   1.409       .  A
C882        C883   1.402       .  A
C882        H887   1.083       .  S
C883        C884   1.408       .  A
C883       Br891   1.916       .  S
C884        C885   1.405       .  A
C885        C886   1.404       .  A
C885        H888   1.083       .  S
C886       Br892   1.917       .  S
C893        C894   1.416       .  A
C893        C898   1.407       .  A
C894        C895   1.402       .  A
C894       Br910   1.920       .  S
C895        C896   1.401       .  A
C895        H899   1.084       .  S
C896        C897   1.406       .  A
C896        C900   1.480       .  S
C897        C898   1.400       .  A
C897       Br909   1.918       .  S
C898        H901   1.083       .  S
C900        C902   1.401       .  A
C900        C906   1.408       .  A
C902        C903   1.400       .  A
C902        H907   1.083       .  S
C903        C904   1.413       .  A
C903       Br911   1.920       .  S
C904        C905   1.405       .  A
C905        C906   1.402       .  A
C905        H908   1.083       .  S
C906       Br912   1.917       .  S
C913        C914   1.422       .  A
C913        C918   1.410       .  A
C914        C915   1.398       .  A
C914       Br930   1.925       .  S
C915        C916   1.399       .  A
C915        H919   1.084       .  S
C916        C917   1.409       .  A
C916        C920   1.486       .  S
C917        C918   1.404       .  A
C917       Br929   1.919       .  S
C918        H921   1.083       .  S
C920        C922   1.404       .  A
C920        C926   1.413       .  A
C922        C923   1.401       .  A
C922        H927   1.083       .  S
C923        C924   1.408       .  A
C923       Br931   1.918       .  S
C924        C925   1.402       .  A
C925        C926   1.400       .  A
C925        H928   1.083       .  S
C926       Br932   1.920       .  S
C933        C934   1.410       .  A
C933        C938   1.405       .  A
C934        C935   1.404       .  A
C934       Br950   1.917       .  S
C935        C936   1.405       .  A
C935        H939   1.083       .  S
C936        C937   1.410       .  A
C936        C940   1.490       .  S
C937        C938   1.404       .  A
C937       Br949   1.918       .  S
C938        H941   1.083       .  S
C940        C942   1.402       .  A
C940        C946   1.409       .  A
C942        C943   1.404       .  A
C942        H947   1.084       .  S
C943        C944   1.419       .  A
C943       Br951   1.922       .  S
C944        C945   1.409       .  A
C945        C946   1.403       .  A
C945        H948   1.083       .  S
C946       Br952   1.918       .  S
C953        C954   1.408       .  A
C953        C958   1.403       .  A
C954        C955   1.399       .  A
C954       Br970   1.917       .  S
C955        C956   1.403       .  A
C955        H959   1.083       .  S
C956        C957   1.411       .  A
C956        C960   1.482       .  S
C957        C958   1.402       .  A
C957       Br969   1.919       .  S
C958        H961   1.083       .  S
C960        C962   1.401       .  A
C960        C966   1.406       .  A
C962        C963   1.402       .  A
C962        H967   1.084       .  S
C963        C964   1.420       .  A
C963       Br971   1.923       .  S
C964        C965   1.410       .  A
C965        C966   1.400       .  A
C965        H968   1.083       .  S
C966       Br972   1.919       .  S
C973        C974   1.421       .  A
C973        C978   1.411       .  A
C974        C975   1.403       .  A
C974       Br990   1.923       .  S
C975        C976   1.402       .  A
C975        H979   1.084       .  S
C976        C977   1.406       .  A
C976        C980   1.485       .  S
C977        C978   1.400       .  A
C977       Br989   1.918       .  S
C978        H981   1.083       .  S
C980        C982   1.404       .  A
C980        C986   1.409       .  A
C982        C983   1.402       .  A
C982        H987   1.083       .  S
C983        C984   1.409       .  A
C983       Br991   1.917       .  S
C984        C985   1.404       .  A
C985        C986   1.402       .  A
C985        H988   1.083       .  S
C986       Br992   1.918       .  S
C993        C994   1.408       .  A
C993        C998   1.403       .  A
C994        C995   1.398       .  A
C994      Br1010   1.918       .  S
C995        C996   1.401       .  A
C995        H999   1.083       .  S
C996        C997   1.410       .  A
C996       C1000   1.478       .  S
C997        C998   1.402       .  A
C997      Br1009   1.919       .  S
C998       H1001   1.083       .  S
C1000      C1002   1.401       .  A
C1000      C1006   1.405       .  A
C1002      C1003   1.400       .  A
C1002      H1007   1.084       .  S
C1003      C1004   1.414       .  A
C1003     Br1011   1.919       .  S
C1004      C1005   1.409       .  A
C1005      C1006   1.400       .  A
C1005      H1008   1.083       .  S
C1006     Br1012   1.918       .  S
C1013      C1014   1.419       .  A
C1013      C1018   1.409       .  A
C1014      C1015   1.404       .  A
C1014     Br1030   1.922       .  S
C1015      C1016   1.403       .  A
C1015      H1019   1.083       .  S
C1016      C1017   1.407       .  A
C1016      C1020   1.485       .  S
C1017      C1018   1.398       .  A
C1017     Br1029   1.920       .  S
C1018      H1021   1.083       .  S
C1020      C1022   1.406       .  A
C1020      C1026   1.409       .  A
C1022      C1023   1.401       .  A
C1022      H1027   1.084       .  S
C1023      C1024   1.408       .  A
C1023     Br1031   1.918       .  S
C1024      C1025   1.404       .  A
C1025      C1026   1.400       .  A
C1025      H1028   1.083       .  S
C1026     Br1032   1.917       .  S
C1033      C1034   1.423       .  A
C1033      C1038   1.408       .  A
C1034      C1035   1.397       .  A
C1034     Br1050   1.924       .  S
C1035      C1036   1.396       .  A
C1035      H1039   1.084       .  S
C1036      C1037   1.406       .  A
C1036      C1040   1.476       .  S
C1037      C1038   1.402       .  A
C1037     Br1049   1.917       .  S
C1038      H1041   1.083       .  S
C1040      C1042   1.401       .  A
C1040      C1046   1.408       .  A
C1042      C1043   1.401       .  A
C1042      H1047   1.083       .  S
C1043      C1044   1.413       .  A
C1043     Br1051   1.920       .  S
C1044      C1045   1.401       .  A
C1045      C1046   1.397       .  A
C1045      H1048   1.083       .  S
C1046     Br1052   1.919       .  S
C1053      C1054   1.408       .  A
C1053      C1058   1.403       .  A
C1054      C1055   1.401       .  A
C1054     Br1070   1.917       .  S
C1055      C1056   1.404       .  A
C1055      H1059   1.083       .  S
C1056      C1057   1.411       .  A
C1056      C1060   1.485       .  S
C1057      C1058   1.402       .  A
C1057     Br1069   1.917       .  S
C1058      H1061   1.083       .  S
C1060      C1062   1.399       .  A
C1060      C1066   1.406       .  A
C1062      C1063   1.403       .  A
C1062      H1067   1.084       .  S
C1063      C1064   1.424       .  A
C1063     Br1071   1.923       .  S
C1064      C1065   1.412       .  A
C1065      C1066   1.402       .  A
C1065      H1068   1.083       .  S
C1066     Br1072   1.918       .  S
C1073      C1074   1.414       .  A
C1073      C1078   1.405       .  A
C1074      C1075   1.401       .  A
C1074     Br1090   1.921       .  S
C1075      C1076   1.402       .  A
C1075      H1079   1.084       .  S
C1076      C1077   1.406       .  A
C1076      C1080   1.478       .  S
C1077      C1078   1.398       .  A
C1077     Br1089   1.918       .  S
C1078      H1081   1.084       .  S
C1080      C1082   1.404       .  A
C1080      C1086   1.407       .  A
C1082      C1083   1.401       .  A
C1082      H1087   1.083       .  S
C1083      C1084   1.409       .  A
C1083     Br1091   1.918       .  S
C1084      C1085   1.403       .  A
C1085      C1086   1.398       .  A
C1085      H1088   1.083       .  S
C1086     Br1092   1.917       .  S
C1093      C1094   1.418       .  A
C1093      C1098   1.411       .  A
C1094      C1095   1.405       .  A
C1094     Br1110   1.920       .  S
C1095      C1096   1.402       .  A
C1095      H1099   1.084       .  S
C1096      C1097   1.407       .  A
C1096      C1100   1.488       .  S
C1097      C1098   1.403       .  A
C1097     Br1109   1.919       .  S
C1098      H1101   1.083       .  S
C1100      C1102   1.404       .  A
C1100      C1106   1.409       .  A
C1102      C1103   1.403       .  A
C1102      H1107   1.083       .  S
C1103      C1104   1.410       .  A
C1103     Br1111   1.918       .  S
C1104      C1105   1.407       .  A
C1105      C1106   1.404       .  A
C1105      H1108   1.083       .  S
C1106     Br1112   1.917       .  S
C1113      C1114   1.409       .  A
C1113      C1118   1.404       .  A
C1114      C1115   1.403       .  A
C1114     Br1130   1.917       .  S
C1115      C1116   1.404       .  A
C1115      H1119   1.083       .  S
C1116      C1117   1.412       .  A
C1116      C1120   1.489       .  S
C1117      C1118   1.404       .  A
C1117     Br1129   1.919       .  S
C1118      H1121   1.083       .  S
C1120      C1122   1.400       .  A
C1120      C1126   1.408       .  A
C1122      C1123   1.403       .  A
C1122      H1127   1.084       .  S
C1123      C1124   1.423       .  A
C1123     Br1131   1.922       .  S
C1124      C1125   1.411       .  A
C1125      C1126   1.405       .  A
C1125      H1128   1.083       .  S
C1126     Br1132   1.919       .  S
C1133      C1134   1.407       .  A
C1133      C1138   1.404       .  A
C1134      C1135   1.398       .  A
C1134     Br1150   1.918       .  S
C1135      C1136   1.404       .  A
C1135      H1139   1.083       .  S
C1136      C1137   1.409       .  A
C1136      C1140   1.482       .  S
C1137      C1138   1.402       .  A
C1137     Br1149   1.918       .  S
C1138      H1141   1.083       .  S
C1140      C1142   1.403       .  A
C1140      C1146   1.407       .  A
C1142      C1143   1.403       .  A
C1142      H1147   1.083       .  S
C1143      C1144   1.414       .  A
C1143     Br1151   1.919       .  S
C1144      C1145   1.406       .  A
C1145      C1146   1.399       .  A
C1145      H1148   1.083       .  S
C1146     Br1152   1.920       .  S
C1153      C1154   1.419       .  A
C1153      C1158   1.410       .  A
C1154      C1155   1.404       .  A
C1154     Br1170   1.921       .  S
C1155      C1156   1.401       .  A
C1155      H1159   1.084       .  S
C1156      C1157   1.405       .  A
C1156      C1160   1.485       .  S
C1157      C1158   1.402       .  A
C1157     Br1169   1.918       .  S
C1158      H1161   1.083       .  S
C1160      C1162   1.404       .  A
C1160      C1166   1.408       .  A
C1162      C1163   1.403       .  A
C1162      H1167   1.083       .  S
C1163      C1164   1.410       .  A
C1163     Br1171   1.919       .  S
C1164      C1165   1.406       .  A
C1165      C1166   1.401       .  A
C1165      H1168   1.083       .  S
C1166     Br1172   1.917       .  S
C1173      C1174   1.410       .  A
C1173      C1178   1.403       .  A
C1174      C1175   1.400       .  A
C1174     Br1190   1.919       .  S
C1175      C1176   1.401       .  A
C1175      H1179   1.083       .  S
C1176      C1177   1.409       .  A
C1176      C1180   1.478       .  S
C1177      C1178   1.399       .  A
C1177     Br1189   1.918       .  S
C1178      H1181   1.083       .  S
C1180      C1182   1.401       .  A
C1180      C1186   1.403       .  A
C1182      C1183   1.404       .  A
C1182      H1187   1.084       .  S
C1183      C1184   1.420       .  A
C1183     Br1191   1.922       .  S
C1184      C1185   1.412       .  A
C1185      C1186   1.397       .  A
C1185      H1188   1.082       .  S
C1186     Br1192   1.920       .  S
C1193      C1194   1.423       .  A
C1193      C1198   1.409       .  A
C1194      C1195   1.403       .  A
C1194     Br1210   1.924       .  S
C1195      C1196   1.400       .  A
C1195      H1199   1.084       .  S
C1196      C1197   1.408       .  A
C1196      C1200   1.489       .  S
C1197      C1198   1.406       .  A
C1197     Br1209   1.917       .  S
C1198      H1201   1.083       .  S
C1200      C1202   1.405       .  A
C1200      C1206   1.409       .  A
C1202      C1203   1.407       .  A
C1202      H1207   1.083       .  S
C1203      C1204   1.411       .  A
C1203     Br1211   1.917       .  S
C1204      C1205   1.402       .  A
C1205      C1206   1.401       .  A
C1205      H1208   1.083       .  S
C1206     Br1212   1.918       .  S
C1213      C1214   1.424       .  A
C1213      C1218   1.412       .  A
C1214      C1215   1.401       .  A
C1214     Br1230   1.923       .  S
C1215      C1216   1.398       .  A
C1215      H1219   1.084       .  S
C1216      C1217   1.406       .  A
C1216      C1220   1.484       .  S
C1217      C1218   1.404       .  A
C1217     Br1229   1.918       .  S
C1218      H1221   1.083       .  S
C1220      C1222   1.403       .  A
C1220      C1226   1.406       .  A
C1222      C1223   1.402       .  A
C1222      H1227   1.084       .  S
C1223      C1224   1.412       .  A
C1223     Br1231   1.918       .  S
C1224      C1225   1.409       .  A
C1225      C1226   1.403       .  A
C1225      H1228   1.083       .  S
C1226     Br1232   1.917       .  S
C1233      C1234   1.409       .  A
C1233      C1238   1.403       .  A
C1234      C1235   1.403       .  A
C1234     Br1250   1.917       .  S
C1235      C1236   1.403       .  A
C1235      H1239   1.083       .  S
C1236      C1237   1.410       .  A
C1236      C1240   1.483       .  S
C1237      C1238   1.401       .  A
C1237     Br1249   1.918       .  S
C1238      H1241   1.083       .  S
C1240      C1242   1.404       .  A
C1240      C1246   1.404       .  A
C1242      C1243   1.406       .  A
C1242      H1247   1.083       .  S
C1243      C1244   1.416       .  A
C1243     Br1251   1.920       .  S
C1244      C1245   1.408       .  A
C1245      C1246   1.398       .  A
C1245      H1248   1.083       .  S
C1246     Br1252   1.918       .  S
C1253      C1254   1.415       .  A
C1253      C1258   1.406       .  A
C1254      C1255   1.401       .  A
C1254     Br1270   1.920       .  S
C1255      C1256   1.402       .  A
C1255      H1259   1.083       .  S
C1256      C1257   1.410       .  A
C1256      C1260   1.485       .  S
C1257      C1258   1.401       .  A
C1257     Br1269   1.921       .  S
C1258      H1261   1.083       .  S
C1260      C1262   1.401       .  A
C1260      C1266   1.408       .  A
C1262      C1263   1.402       .  A
C1262      H1267   1.084       .  S
C1263      C1264   1.420       .  A
C1263     Br1271   1.923       .  S
C1264      C1265   1.409       .  A
C1265      C1266   1.398       .  A
C1265      H1268   1.083       .  S
C1266     Br1272   1.920       .  S
C1273      C1274   1.421       .  A
C1273      C1278   1.412       .  A
C1274      C1275   1.401       .  A
C1274     Br1290   1.917       .  S
C1275      C1276   1.398       .  A
C1275      H1279   1.084       .  S
C1276      C1277   1.407       .  A
C1276      C1280   1.485       .  S
C1277      C1278   1.405       .  A
C1277     Br1289   1.917       .  S
C1278      H1281   1.083       .  S
C1280      C1282   1.403       .  A
C1280      C1286   1.410       .  A
C1282      C1283   1.403       .  A
C1282      H1287   1.083       .  S
C1283      C1284   1.411       .  A
C1283     Br1291   1.918       .  S
C1284      C1285   1.404       .  A
C1285      C1286   1.403       .  A
C1285      H1288   1.083       .  S
C1286     Br1292   1.918       .  S
C1293      C1294   1.409       .  A
C1293      C1298   1.406       .  A
C1294      C1295   1.399       .  A
C1294     Br1310   1.918       .  S
C1295      C1296   1.403       .  A
C1295      H1299   1.083       .  S
C1296      C1297   1.408       .  A
C1296      C1300   1.481       .  S
C1297      C1298   1.401       .  A
C1297     Br1309   1.919       .  S
C1298      H1301   1.083       .  S
C1300      C1302   1.400       .  A
C1300      C1306   1.408       .  A
C1302      C1303   1.399       .  A
C1302      H1307   1.084       .  S
C1303      C1304   1.417       .  A
C1303     Br1311   1.923       .  S
C1304      C1305   1.407       .  A
C1305      C1306   1.401       .  A
C1305      H1308   1.083       .  S
C1306     Br1312   1.918       .  S
C1313      C1314   1.408       .  A
C1313      C1318   1.402       .  A
C1314      C1315   1.401       .  A
C1314     Br1330   1.917       .  S
C1315      C1316   1.405       .  A
C1315      H1319   1.083       .  S
C1316      C1317   1.409       .  A
C1316      C1320   1.481       .  S
C1317      C1318   1.398       .  A
C1317     Br1329   1.919       .  S
C1318      H1321   1.084       .  S
C1320      C1322   1.405       .  A
C1320      C1326   1.408       .  A
C1322      C1323   1.402       .  A
C1322      H1327   1.084       .  S
C1323      C1324   1.411       .  A
C1323     Br1331   1.918       .  S
C1324      C1325   1.406       .  A
C1325      C1326   1.398       .  A
C1325      H1328   1.084       .  S
C1326     Br1332   1.920       .  S
C1333      C1334   1.415       .  A
C1333      C1338   1.406       .  A
C1334      C1335   1.402       .  A
C1334     Br1350   1.920       .  S
C1335      C1336   1.402       .  A
C1335      H1339   1.083       .  S
C1336      C1337   1.407       .  A
C1336      C1340   1.480       .  S
C1337      C1338   1.400       .  A
C1337     Br1349   1.920       .  S
C1338      H1341   1.082       .  S
C1340      C1342   1.404       .  A
C1340      C1346   1.407       .  A
C1342      C1343   1.401       .  A
C1342      H1347   1.083       .  S
C1343      C1344   1.408       .  A
C1343     Br1351   1.918       .  S
C1344      C1345   1.404       .  A
C1345      C1346   1.399       .  A
C1345      H1348   1.084       .  S
C1346     Br1352   1.917       .  S
C1353      C1354   1.412       .  A
C1353      C1358   1.409       .  A
C1354      C1355   1.403       .  A
C1354     Br1370   1.919       .  S
C1355      C1356   1.403       .  A
C1355      H1359   1.083       .  S
C1356      C1357   1.407       .  A
C1356      C1360   1.483       .  S
C1357      C1358   1.401       .  A
C1357     Br1369   1.919       .  S
C1358      H1361   1.084       .  S
C1360      C1362   1.404       .  A
C1360      C1366   1.408       .  A
C1362      C1363   1.402       .  A
C1362      H1367   1.083       .  S
C1363      C1364   1.409       .  A
C1363     Br1371   1.918       .  S
C1364      C1365   1.404       .  A
C1365      C1366   1.401       .  A
C1365      H1368   1.083       .  S
C1366     Br1372   1.917       .  S
C1373      C1374   1.410       .  A
C1373      C1378   1.403       .  A
C1374      C1375   1.404       .  A
C1374     Br1390   1.917       .  S
C1375      C1376   1.406       .  A
C1375      H1379   1.083       .  S
C1376      C1377   1.410       .  A
C1376      C1380   1.489       .  S
C1377      C1378   1.400       .  A
C1377     Br1389   1.919       .  S
C1378      H1381   1.083       .  S
C1380      C1382   1.402       .  A
C1380      C1386   1.407       .  A
C1382      C1383   1.402       .  A
C1382      H1387   1.084       .  S
C1383      C1384   1.420       .  A
C1383     Br1391   1.921       .  S
C1384      C1385   1.411       .  A
C1385      C1386   1.403       .  A
C1385      H1388   1.083       .  S
C1386     Br1392   1.919       .  S
C1393      C1394   1.421       .  A
C1393      C1398   1.412       .  A
C1394      C1395   1.399       .  A
C1394     Br1410   1.923       .  S
C1395      C1396   1.400       .  A
C1395      H1399   1.084       .  S
C1396      C1397   1.406       .  A
C1396      C1400   1.483       .  S
C1397      C1398   1.401       .  A
C1397     Br1409   1.919       .  S
C1398      H1401   1.083       .  S
C1400      C1402   1.405       .  A
C1400      C1406   1.408       .  A
C1402      C1403   1.402       .  A
C1402      H1407   1.083       .  S
C1403      C1404   1.411       .  A
C1403     Br1411   1.919       .  S
C1404      C1405   1.405       .  A
C1405      C1406   1.398       .  A
C1405      H1408   1.084       .  S
C1406     Br1412   1.919       .  S
C1413      C1414   1.411       .  A
C1413      C1418   1.403       .  A
C1414      C1415   1.403       .  A
C1414     Br1430   1.918       .  S
C1415      C1416   1.406       .  A
C1415      H1419   1.083       .  S
C1416      C1417   1.409       .  A
C1416      C1420   1.482       .  S
C1417      C1418   1.393       .  A
C1417     Br1429   1.921       .  S
C1418      H1421   1.084       .  S
C1420      C1422   1.399       .  A
C1420      C1426   1.410       .  A
C1422      C1423   1.392       .  A
C1422      H1427   1.084       .  S
C1423      C1424   1.415       .  A
C1423     Br1431   1.924       .  S
C1424      C1425   1.408       .  A
C1425      C1426   1.405       .  A
C1425      H1428   1.083       .  S
C1426     Br1432   1.918       .  S
C1433      C1434   1.414       .  A
C1433      C1438   1.406       .  A
C1434      C1435   1.403       .  A
C1434     Br1450   1.920       .  S
C1435      C1436   1.402       .  A
C1435      H1439   1.084       .  S
C1436      C1437   1.412       .  A
C1436      C1440   1.493       .  S
C1437      C1438   1.409       .  A
C1437     Br1449   1.918       .  S
C1438      H1441   1.083       .  S
C1440      C1442   1.406       .  A
C1440      C1446   1.410       .  A
C1442      C1443   1.407       .  A
C1442      H1447   1.083       .  S
C1443      C1444   1.413       .  A
C1443     Br1451   1.918       .  S
C1444      C1445   1.406       .  A
C1445      C1446   1.402       .  A
C1445      H1448   1.083       .  S
C1446     Br1452   1.917       .  S
C1453      C1454   1.412       .  A
C1453      C1458   1.404       .  A
C1454      C1455   1.402       .  A
C1454     Br1470   1.920       .  S
C1455      C1456   1.404       .  A
C1455      H1459   1.084       .  S
C1456      C1457   1.411       .  A
C1456      C1460   1.488       .  S
C1457      C1458   1.403       .  A
C1457     Br1469   1.918       .  S
C1458      H1461   1.083       .  S
C1460      C1462   1.399       .  A
C1460      C1466   1.413       .  A
C1462      C1463   1.396       .  A
C1462      H1467   1.084       .  S
C1463      C1464   1.414       .  A
C1463     Br1471   1.922       .  S
C1464      C1465   1.407       .  A
C1465      C1466   1.409       .  A
C1465      H1468   1.083       .  S
C1466     Br1472   1.918       .  S
C1473      C1474   1.420       .  A
C1473      C1478   1.407       .  A
C1474      C1475   1.404       .  A
C1474     Br1490   1.924       .  S
C1475      C1476   1.401       .  A
C1475      H1479   1.084       .  S
C1476      C1477   1.405       .  A
C1476      C1480   1.481       .  S
C1477      C1478   1.399       .  A
C1477     Br1489   1.918       .  S
C1478      H1481   1.083       .  S
C1480      C1482   1.400       .  A
C1480      C1486   1.408       .  A
C1482      C1483   1.401       .  A
C1482      H1487   1.083       .  S
C1483      C1484   1.415       .  A
C1483     Br1491   1.920       .  S
C1484      C1485   1.408       .  A
C1485      C1486   1.402       .  A
C1485      H1488   1.083       .  S
C1486     Br1492   1.918       .  S
C1493      C1494   1.420       .  A
C1493      C1498   1.412       .  A
C1494      C1495   1.401       .  A
C1494     Br1510   1.921       .  S
C1495      C1496   1.399       .  A
C1495      H1499   1.084       .  S
C1496      C1497   1.405       .  A
C1496      C1500   1.478       .  S
C1497      C1498   1.399       .  A
C1497     Br1509   1.921       .  S
C1498      H1501   1.081       .  S
C1500      C1502   1.401       .  A
C1500      C1506   1.410       .  A
C1502      C1503   1.398       .  A
C1502      H1507   1.083       .  S
C1503      C1504   1.410       .  A
C1503     Br1511   1.920       .  S
C1504      C1505   1.403       .  A
C1505      C1506   1.399       .  A
C1505      H1508   1.084       .  S
C1506     Br1512   1.919       .  S
C1513      C1514   1.417       .  A
C1513      C1518   1.407       .  A
C1514      C1515   1.402       .  A
C1514     Br1530   1.918       .  S
C1515      C1516   1.400       .  A
C1515      H1519   1.084       .  S
C1516      C1517   1.408       .  A
C1516      C1520   1.483       .  S
C1517      C1518   1.401       .  A
C1517     Br1529   1.919       .  S
C1518      H1521   1.083       .  S
C1520      C1522   1.404       .  A
C1520      C1526   1.410       .  A
C1522      C1523   1.403       .  A
C1522      H1527   1.083       .  S
C1523      C1524   1.409       .  A
C1523     Br1531   1.919       .  S
C1524      C1525   1.402       .  A
C1525      C1526   1.399       .  A
C1525      H1528   1.083       .  S
C1526     Br1532   1.919       .  S
C1533      C1534   1.414       .  A
C1533      C1538   1.404       .  A
C1534      C1535   1.398       .  A
C1534     Br1550   1.919       .  S
C1535      C1536   1.399       .  A
C1535      H1539   1.084       .  S
C1536      C1537   1.407       .  A
C1536      C1540   1.476       .  S
C1537      C1538   1.400       .  A
C1537     Br1549   1.917       .  S
C1538      H1541   1.083       .  S
C1540      C1542   1.403       .  A
C1540      C1546   1.406       .  A
C1542      C1543   1.399       .  A
C1542      H1547   1.084       .  S
C1543      C1544   1.407       .  A
C1543     Br1551   1.918       .  S
C1544      C1545   1.403       .  A
C1545      C1546   1.399       .  A
C1545      H1548   1.083       .  S
C1546     Br1552   1.917       .  S
C1553      C1554   1.423       .  A
C1553      C1558   1.410       .  A
C1554      C1555   1.407       .  A
C1554     Br1570   1.922       .  S
C1555      C1556   1.402       .  A
C1555      H1559   1.084       .  S
C1556      C1557   1.407       .  A
C1556      C1560   1.491       .  S
C1557      C1558   1.402       .  A
C1557     Br1569   1.919       .  S
C1558      H1561   1.081       .  S
C1560      C1562   1.403       .  A
C1560      C1566   1.410       .  A
C1562      C1563   1.402       .  A
C1562      H1567   1.083       .  S
C1563      C1564   1.411       .  A
C1563     Br1571   1.919       .  S
C1564      C1565   1.408       .  A
C1565      C1566   1.407       .  A
C1565      H1568   1.083       .  S
C1566     Br1572   1.918       .  S
C1573      C1574   1.413       .  A
C1573      C1578   1.408       .  A
C1574      C1575   1.402       .  A
C1574     Br1590   1.919       .  S
C1575      C1576   1.403       .  A
C1575      H1579   1.083       .  S
C1576      C1577   1.408       .  A
C1576      C1580   1.486       .  S
C1577      C1578   1.403       .  A
C1577     Br1589   1.918       .  S
C1578      H1581   1.083       .  S
C1580      C1582   1.402       .  A
C1580      C1586   1.405       .  A
C1582      C1583   1.404       .  A
C1582      H1587   1.084       .  S
C1583      C1584   1.421       .  A
C1583     Br1591   1.923       .  S
C1584      C1585   1.410       .  A
C1585      C1586   1.400       .  A
C1585      H1588   1.083       .  S
C1586     Br1592   1.919       .  S
C1593      C1594   1.421       .  A
C1593      C1598   1.407       .  A
C1594      C1595   1.403       .  A
C1594     Br1610   1.923       .  S
C1595      C1596   1.400       .  A
C1595      H1599   1.084       .  S
C1596      C1597   1.407       .  A
C1596      C1600   1.484       .  S
C1597      C1598   1.402       .  A
C1597     Br1609   1.917       .  S
C1598      H1601   1.083       .  S
C1600      C1602   1.403       .  A
C1600      C1606   1.409       .  A
C1602      C1603   1.403       .  A
C1602      H1607   1.083       .  S
C1603      C1604   1.409       .  A
C1603     Br1611   1.918       .  S
C1604      C1605   1.403       .  A
C1605      C1606   1.402       .  A
C1605      H1608   1.083       .  S
C1606     Br1612   1.918       .  S
C1613      C1614   1.413       .  A
C1613      C1618   1.409       .  A
C1614      C1615   1.406       .  A
C1614     Br1630   1.918       .  S
C1615      C1616   1.405       .  A
C1615      H1619   1.083       .  S
C1616      C1617   1.404       .  A
C1616      C1620   1.483       .  S
C1617      C1618   1.397       .  A
C1617     Br1629   1.920       .  S
C1618      H1621   1.082       .  S
C1620      C1622   1.403       .  A
C1620      C1626   1.408       .  A
C1622      C1623   1.398       .  A
C1622      H1627   1.084       .  S
C1623      C1624   1.409       .  A
C1623     Br1631   1.918       .  S
C1624      C1625   1.407       .  A
C1625      C1626   1.404       .  A
C1625      H1628   1.083       .  S
C1626     Br1632   1.917       .  S
C1633      C1634   1.423       .  A
C1633      C1638   1.411       .  A
C1634      C1635   1.403       .  A
C1634     Br1650   1.924       .  S
C1635      C1636   1.400       .  A
C1635      H1639   1.084       .  S
C1636      C1637   1.406       .  A
C1636      C1640   1.486       .  S
C1637      C1638   1.403       .  A
C1637     Br1649   1.917       .  S
C1638      H1641   1.083       .  S
C1640      C1642   1.402       .  A
C1640      C1646   1.410       .  A
C1642      C1643   1.401       .  A
C1642      H1647   1.083       .  S
C1643      C1644   1.412       .  A
C1643     Br1651   1.918       .  S
C1644      C1645   1.405       .  A
C1645      C1646   1.404       .  A
C1645      H1648   1.083       .  S
C1646     Br1652   1.917       .  S
C1653      C1654   1.419       .  A
C1653      C1658   1.407       .  A
C1654      C1655   1.399       .  A
C1654     Br1670   1.923       .  S
C1655      C1656   1.403       .  A
C1655      H1659   1.084       .  S
C1656      C1657   1.412       .  A
C1656      C1660   1.492       .  S
C1657      C1658   1.402       .  A
C1657     Br1669   1.919       .  S
C1658      H1661   1.083       .  S
C1660      C1662   1.405       .  A
C1660      C1666   1.415       .  A
C1662      C1663   1.402       .  A
C1662      H1667   1.083       .  S
C1663      C1664   1.411       .  A
C1663     Br1671   1.918       .  S
C1664      C1665   1.403       .  A
C1665      C1666   1.401       .  A
C1665      H1668   1.083       .  S
C1666     Br1672   1.922       .  S
C1673      C1674   1.408       .  A
C1673      C1678   1.402       .  A
C1674      C1675   1.401       .  A
C1674     Br1690   1.918       .  S
C1675      C1676   1.404       .  A
C1675      H1679   1.083       .  S
C1676      C1677   1.409       .  A
C1676      C1680   1.482       .  S
C1677      C1678   1.400       .  A
C1677     Br1689   1.917       .  S
C1678      H1681   1.083       .  S
C1680      C1682   1.404       .  A
C1680      C1686   1.406       .  A
C1682      C1683   1.404       .  A
C1682      H1687   1.083       .  S
C1683      C1684   1.412       .  A
C1683     Br1691   1.918       .  S
C1684      C1685   1.408       .  A
C1685      C1686   1.400       .  A
C1685      H1688   1.084       .  S
C1686     Br1692   1.919       .  S
C1693      C1694   1.409       .  A
C1693      C1698   1.406       .  A
C1694      C1695   1.403       .  A
C1694     Br1710   1.919       .  S
C1695      C1696   1.406       .  A
C1695      H1699   1.083       .  S
C1696      C1697   1.408       .  A
C1696      C1700   1.484       .  S
C1697      C1698   1.396       .  A
C1697     Br1709   1.921       .  S
C1698      H1701   1.084       .  S
C1700      C1702   1.403       .  A
C1700      C1706   1.410       .  A
C1702      C1703   1.398       .  A
C1702      H1707   1.083       .  S
C1703      C1704   1.412       .  A
C1703     Br1711   1.921       .  S
C1704      C1705   1.405       .  A
C1705      C1706   1.401       .  A
C1705      H1708   1.083       .  S
C1706     Br1712   1.920       .  S
C1713      C1714   1.413       .  A
C1713      C1718   1.406       .  A
C1714      C1715   1.399       .  A
C1714     Br1730   1.920       .  S
C1715      C1716   1.402       .  A
C1715      H1719   1.084       .  S
C1716      C1717   1.410       .  A
C1716      C1720   1.485       .  S
C1717      C1718   1.402       .  A
C1717     Br1729   1.920       .  S
C1718      H1721   1.083       .  S
C1720      C1722   1.405       .  A
C1720      C1726   1.411       .  A
C1722      C1723   1.399       .  A
C1722      H1727   1.083       .  S
C1723      C1724   1.407       .  A
C1723     Br1731   1.919       .  S
C1724      C1725   1.401       .  A
C1725      C1726   1.399       .  A
C1725      H1728   1.083       .  S
C1726     Br1732   1.919       .  S
C1733      C1734   1.406       .  A
C1733      C1738   1.401       .  A
C1734      C1735   1.397       .  A
C1734     Br1750   1.918       .  S
C1735      C1736   1.404       .  A
C1735      H1739   1.083       .  S
C1736      C1737   1.409       .  A
C1736      C1740   1.477       .  S
C1737      C1738   1.397       .  A
C1737     Br1749   1.919       .  S
C1738      H1741   1.083       .  S
C1740      C1742   1.399       .  A
C1740      C1746   1.407       .  A
C1742      C1743   1.395       .  A
C1742      H1747   1.084       .  S
C1743      C1744   1.418       .  A
C1743     Br1751   1.923       .  S
C1744      C1745   1.408       .  A
C1745      C1746   1.401       .  A
C1745      H1748   1.083       .  S
C1746     Br1752   1.920       .  S
