geometry optimzed in LAMMPS
_audit_creation_date              2020-12-01 
_audit_creation_method            'lammps2cif' 
_symmetry_space_group_name_H-M    'P1' 
_symmetry_Int_Tables_number       1 
_symmetry_cell_setting            triclinic 
loop_ 
_symmetry_equiv_pos_as_xyz 
  x,y,z 
_cell_length_a                    117.38740326 
_cell_length_b                    117.2779773434844 
_cell_length_c                    87.02441494906707 
_cell_angle_alpha                 90.0178383379927 
_cell_angle_beta                  90.02507806299032 
_cell_angle_gamma                 89.97801520332193 
loop_ 
_atom_site_label 
_atom_site_type_symbol 
_atom_site_fract_x 
_atom_site_fract_y 
_atom_site_fract_z 
_atom_site_charge 
N1          N  0.54167424  0.23256425  0.89833137    -0.27000
N2          N  0.53881764  0.23128735  0.91291165    -0.34800
C3          C  0.52751585  0.23235521  0.91438158     0.01400
C4          C  0.52285410  0.23441559  0.90007600     0.07400
C5          C  0.53207937  0.23440484  0.89004848    -0.05700
H6          H  0.52305808  0.23225733  0.92526220     0.08100
H7          H  0.53191595  0.23640513  0.87791488     0.09300
Cu8        Cu  0.55020251  0.23009956  0.93088597     0.44200
Cu9        Cu  0.55884490  0.23349499  0.89187089     0.42000
Cu10       Cu  0.57935818  0.23637456  0.92487089     0.43900
N11         N  0.56174415  0.23113375  0.94869887    -0.34400
N12         N  0.57259651  0.23375474  0.94687320    -0.28600
C13         C  0.57767868  0.23380167  0.96082209    -0.04700
C14         C  0.56957655  0.23095960  0.97185225     0.07500
C15         C  0.55960553  0.22938183  0.96364560     0.01300
H16         H  0.58664038  0.23542879  0.96272383     0.09000
H17         H  0.55132915  0.22712892  0.96821433     0.08000
N18         N  0.58364905  0.23727955  0.90149321    -0.35800
N19         N  0.57649841  0.23586470  0.88984399    -0.28000
C20         C  0.58242828  0.23634280  0.87658785    -0.03200
C21         C  0.59381869  0.23827065  0.87994544     0.05400
C22         C  0.59423021  0.23881794  0.89586350     0.03500
H23         H  0.57869570  0.23538620  0.86529246     0.08600
H24         H  0.60173925  0.23985742  0.90291138     0.07400
N25         N  0.67272081  0.21785404  0.79821069    -0.27000
N26         N  0.68292620  0.22237932  0.80025089    -0.34800
C27         C  0.69076901  0.21599454  0.79310656     0.01400
C28         C  0.68541926  0.20695409  0.78594326     0.07400
C29         C  0.67388884  0.20844169  0.78928990    -0.05700
H30         H  0.69970730  0.21819573  0.79242945     0.08100
H31         H  0.66691854  0.20314796  0.78544861     0.09300
Cu32       Cu  0.68619669  0.23797529  0.81035128     0.44200
Cu33       Cu  0.65812964  0.22528341  0.80831724     0.42000
Cu34       Cu  0.66378292  0.25450542  0.82409062     0.43900
N35         N  0.68847859  0.25477813  0.81680157    -0.34400
N36         N  0.68004941  0.26127232  0.82165688    -0.28600
C37         C  0.68414614  0.27177605  0.82478307    -0.04700
C38         C  0.69578579  0.27183970  0.82174136     0.07500
C39         C  0.69814348  0.26087484  0.81665459     0.01300
H40         H  0.67908199  0.27870340  0.82932609     0.09000
H41         H  0.70629871  0.25753837  0.81299819     0.08000
N42         N  0.64906465  0.24501394  0.82781892    -0.35800
N43         N  0.64681631  0.23470846  0.82234874    -0.28000
C44         C  0.63682064  0.23116000  0.82841903    -0.03200
C45         C  0.63264479  0.23958094  0.83823580     0.05400
C46         C  0.64068865  0.24819081  0.83742204     0.03500
H47         H  0.63319737  0.22281624  0.82644818     0.08600
H48         H  0.64065300  0.25616509  0.84367841     0.07400
N49         N  0.54049687  0.23103190  0.11076011    -0.27000
N50         N  0.53823283  0.22743621  0.09667917    -0.34800
C51         C  0.52700396  0.22572264  0.09518971     0.01400
C52         C  0.52172298  0.22841093  0.10889464     0.07400
C53         C  0.53054424  0.23182645  0.11857360    -0.05700
H54         H  0.52292820  0.22293255  0.08468478     0.08100
H55         H  0.52980143  0.23450115  0.13043081     0.09300
Cu56       Cu  0.54993763  0.22571484  0.07913147     0.44200
Cu57       Cu  0.55734811  0.23434269  0.11789073     0.42000
Cu58       Cu  0.57790712  0.23481863  0.08505390     0.43900
N59         N  0.56147086  0.22694746  0.06130680    -0.34400
N60         N  0.57194276  0.23075505  0.06320607    -0.28600
C61         C  0.57705426  0.23142668  0.04934310    -0.04700
C62         C  0.56939197  0.22773797  0.03819804     0.07500
C63         C  0.55959230  0.22504407  0.04631837     0.01300
H64         H  0.58564735  0.23446090  0.04751032     0.09000
H65         H  0.55146175  0.22241030  0.04166339     0.08000
N66         N  0.58217126  0.23699025  0.10810498    -0.35800
N67         N  0.57511379  0.23665772  0.11997839    -0.28000
C68         C  0.58127387  0.23801372  0.13299527    -0.03200
C69         C  0.59271130  0.23932439  0.12910079     0.05400
C70         C  0.59283923  0.23861192  0.11322025     0.03500
H71         H  0.57764547  0.23818509  0.14441394     0.08600
H72         H  0.60022466  0.23901735  0.10580951     0.07400
N73         N  0.67218817  0.22546253  0.21102785    -0.27000
N74         N  0.68252019  0.22989721  0.21064277    -0.34800
C75         C  0.68925655  0.22437005  0.22059498     0.01400
C76         C  0.68294200  0.21598741  0.22782987     0.07400
C77         C  0.67209446  0.21692773  0.22145372    -0.05700
H78         H  0.69801483  0.22668142  0.22288556     0.08100
H79         H  0.66467390  0.21188449  0.22423354     0.09300
Cu80       Cu  0.68698439  0.24403832  0.19804129     0.44200
Cu81       Cu  0.65900436  0.23197150  0.19735763     0.42000
Cu82       Cu  0.66619187  0.25882185  0.17631945     0.43900
N83         N  0.69027105  0.25933042  0.18737468    -0.34400
N84         N  0.68261670  0.26518838  0.17955357    -0.28600
C85         C  0.68744139  0.27500177  0.17470618    -0.04700
C86         C  0.69871217  0.27515789  0.17962083     0.07500
C87         C  0.70011036  0.26510707  0.18769600     0.01300
H88         H  0.68311534  0.28147763  0.16804033     0.09000
H89         H  0.70764667  0.26229394  0.19377457     0.08000
N90         N  0.65090605  0.24982004  0.17428591    -0.35800
N91         N  0.64824543  0.24034235  0.18175203    -0.28000
C92         C  0.63786265  0.23683951  0.17705653    -0.03200
C93         C  0.63381887  0.24436966  0.16601130     0.05400
C94         C  0.64233632  0.25250577  0.16467585     0.03500
H95         H  0.63373530  0.22913709  0.18100505     0.08600
H96         H  0.64238543  0.25987118  0.15721527     0.07400
N97         N  0.71219773  0.05063643  0.60824591    -0.27000
N98         N  0.70828909  0.04844717  0.59431029    -0.34800
C99         C  0.70573450  0.03734187  0.59314865     0.01400
C100        C  0.70819567  0.03207052  0.60695024     0.07400
C101        C  0.71238114  0.04076120  0.61629563    -0.05700
H102        H  0.70295540  0.03326646  0.58263573     0.08100
H103        H  0.71552026  0.03991556  0.62792123     0.09300
Cu104      Cu  0.70817725  0.05992549  0.57637014     0.44200
Cu105      Cu  0.71738080  0.06718515  0.61449518     0.42000
Cu106      Cu  0.71935976  0.08755919  0.58144326     0.43900
N107        N  0.71064023  0.07097348  0.55824438    -0.34400
N108        N  0.71502638  0.08126317  0.55980347    -0.28600
C109        C  0.71603772  0.08603106  0.54575160    -0.04700
C110        C  0.71198579  0.07833684  0.53487277     0.07500
C111        C  0.70872953  0.06887163  0.54331510     0.01300
H112        H  0.71948147  0.09443492  0.54361788     0.09000
H113        H  0.70558357  0.06083482  0.53895690     0.08000
N114        N  0.72221780  0.09171942  0.60445218    -0.35800
N115        N  0.72145880  0.08463646  0.61627030    -0.28000
C116        C  0.72348288  0.09056424  0.62928954    -0.03200
C117        C  0.72569235  0.10188771  0.62554571     0.05400
C118        C  0.72475388  0.10221955  0.60966085     0.03500
H119        H  0.72334514  0.08687460  0.64068188     0.08600
H120        H  0.72548327  0.10961371  0.60232532     0.07400
N121        N  0.72012088  0.17387889  0.72121164    -0.27000
N122        N  0.72765401  0.18121161  0.72662844    -0.34800
C123        C  0.72320218  0.18671310  0.73874304     0.01400
C124        C  0.71222196  0.18281645  0.74112383     0.07400
C125        C  0.71049827  0.17468187  0.72970580    -0.05700
H126        H  0.72755657  0.19331580  0.74513774     0.08100
H127        H  0.70291102  0.16963436  0.72786205     0.09300
Cu128      Cu  0.74333978  0.18415508  0.71658351     0.44200
Cu129      Cu  0.72426399  0.16324902  0.70266166     0.42000
Cu130      Cu  0.75193272  0.16951508  0.68249056     0.43900
N131        N  0.75771182  0.18847759  0.70416197    -0.34400
N132        N  0.76106513  0.18335736  0.69142283    -0.28600
C133        C  0.77031894  0.18889288  0.68591788    -0.04700
C134        C  0.77276286  0.19799307  0.69566957     0.07500
C135        C  0.76457842  0.19733866  0.70708118     0.01300
H136        H  0.77463976  0.18672786  0.67533943     0.09000
H137        H  0.76352861  0.20303497  0.71676225     0.08000
N138        N  0.74094996  0.15591981  0.67740809    -0.35800
N139        N  0.73131543  0.15359323  0.68471724    -0.28000
C140        C  0.72672787  0.14407947  0.67861032    -0.03200
C141        C  0.73370189  0.14022032  0.66683677     0.05400
C142        C  0.74259884  0.14800051  0.66640170     0.03500
H143        H  0.71873074  0.14041108  0.68227390     0.08600
H144        H  0.74984001  0.14786293  0.65870968     0.07400
N145        N  0.71591817  0.05117401  0.39459166    -0.27000
N146        N  0.71227436  0.04868158  0.40855899    -0.34800
C147        C  0.70976653  0.03755914  0.40934399     0.01400
C148        C  0.71196176  0.03258679  0.39525329     0.07400
C149        C  0.71595140  0.04148250  0.38611738    -0.05700
H150        H  0.70686215  0.03331148  0.41965946     0.08100
H151        H  0.71856778  0.04097458  0.37422104     0.09300
Cu152      Cu  0.71158337  0.05994983  0.42675266     0.44200
Cu153      Cu  0.72030775  0.06798269  0.38865731     0.42000
Cu154      Cu  0.72124449  0.08810856  0.42211212     0.43900
N155        N  0.71318085  0.07106339  0.44501369    -0.34400
N156        N  0.71710116  0.08154989  0.44359505    -0.28600
C157        C  0.71761870  0.08639358  0.45764795    -0.04700
C158        C  0.71376311  0.07851383  0.46838705     0.07500
C159        C  0.71103327  0.06892164  0.45986922     0.01300
H160        H  0.72045345  0.09501513  0.45982020     0.09000
H161        H  0.70794896  0.06083650  0.46418655     0.08000
N162        N  0.72370468  0.09260866  0.39921331    -0.35800
N163        N  0.72325694  0.08564881  0.38722641    -0.28000
C164        C  0.72472713  0.09186677  0.37432360    -0.03200
C165        C  0.72627545  0.10322693  0.37837563     0.05400
C166        C  0.72551620  0.10330457  0.39425399     0.03500
H167        H  0.72466228  0.08836496  0.36282145     0.08600
H168        H  0.72585959  0.11065172  0.40174179     0.07400
N169        N  0.71042850  0.18276707  0.29803002    -0.27000
N170        N  0.71443234  0.19324587  0.29946764    -0.34800
C171        C  0.70921744  0.20007854  0.28932467     0.01400
C172        C  0.70149181  0.19369481  0.28104123     0.07400
C173        C  0.70246380  0.18270609  0.28681300    -0.05700
H174        H  0.71158390  0.20885378  0.28721089     0.08100
H175        H  0.69840810  0.17511994  0.28235875     0.09300
Cu176      Cu  0.72847983  0.19769284  0.31240624     0.44200
Cu177      Cu  0.71751578  0.16911828  0.31013934     0.42000
Cu178      Cu  0.74472140  0.17604746  0.33017350     0.43900
N179        N  0.74428850  0.20078623  0.32191995    -0.34400
N180        N  0.75063862  0.19273438  0.32815820    -0.28600
C181        C  0.76076976  0.19727376  0.33217313    -0.04700
C182        C  0.76073183  0.20876895  0.32826215     0.07500
C183        C  0.75010533  0.21063887  0.32182349     0.01300
H184        H  0.76763014  0.19254201  0.33749461     0.09000
H185        H  0.74697173  0.21849492  0.31686525     0.08000
N186        N  0.73612944  0.16051188  0.33157732    -0.35800
N187        N  0.72649255  0.15795938  0.32443977    -0.28000
C188        C  0.72308145  0.14751355  0.32896877    -0.03200
C189        C  0.73087503  0.14328744  0.33953342     0.05400
C190        C  0.73902242  0.15179350  0.34081866     0.03500
H191        H  0.71514551  0.14360413  0.32548529     0.08600
H192        H  0.74637871  0.15182823  0.34831047     0.07400
N193        N  0.76453450  0.46549228  0.89517917    -0.27000
N194        N  0.76305569  0.46828051  0.90975293    -0.34800
C195        C  0.76084171  0.47944594  0.91088668     0.01400
C196        C  0.76097922  0.48417686  0.89637585     0.07400
C197        C  0.76345417  0.47508360  0.88658408    -0.05700
H198        H  0.75928502  0.48384492  0.92161539     0.08100
H199        H  0.76406429  0.47536506  0.87419049     0.09300
Cu200      Cu  0.76403546  0.45716201  0.92797687     0.44200
Cu201      Cu  0.76701363  0.44825675  0.88899071     0.42000
Cu202      Cu  0.76793933  0.42790357  0.92294386     0.43900
N203        N  0.76533887  0.44615887  0.94628683    -0.34400
N204        N  0.76688384  0.43508016  0.94481792    -0.28600
C205        C  0.76721144  0.43035119  0.95897660    -0.04700
C206        C  0.76573178  0.43898100  0.96980665     0.07500
C207        C  0.76462469  0.44884659  0.96120429     0.01300
H208        H  0.76815811  0.42132993  0.96115763     0.09000
H209        H  0.76341458  0.45743796  0.96543706     0.08000
N210        N  0.76781684  0.42330181  0.89975981    -0.35800
N211        N  0.76760148  0.43025721  0.88773943    -0.28000
C212        C  0.76707936  0.42386335  0.87482967    -0.03200
C213        C  0.76688172  0.41238411  0.87888290     0.05400
C214        C  0.76738713  0.41245912  0.89478519     0.03500
H215        H  0.76639836  0.42736135  0.86336924     0.08600
H216        H  0.76729969  0.40512796  0.90232697     0.07400
N217        N  0.78263557  0.33218921  0.79971070    -0.27000
N218        N  0.77852475  0.32178982  0.80147103    -0.34800
C219        C  0.78503691  0.31434108  0.79378550     0.01400
C220        C  0.79369347  0.32022993  0.78655690     0.07400
C221        C  0.79190691  0.33160268  0.79049403    -0.05700
H222        H  0.78330507  0.30529975  0.79299994     0.08100
H223        H  0.79696666  0.33885208  0.78699648     0.09300
Cu224      Cu  0.76346973  0.31803736  0.81249284     0.44200
Cu225      Cu  0.77489316  0.34611534  0.81071377     0.42000
Cu226      Cu  0.74696507  0.33951848  0.83011444     0.43900
N227        N  0.74710595  0.31517610  0.82008742    -0.34400
N228        N  0.74060227  0.32305248  0.82643894    -0.28600
C229        C  0.73028686  0.31841591  0.82942865    -0.04700
C230        C  0.73045269  0.30703884  0.82481457     0.07500
C231        C  0.74125243  0.30541526  0.81883607     0.01300
H232        H  0.72325009  0.32293219  0.83465811     0.09000
H233        H  0.74459114  0.29776752  0.81355134     0.08000
N234        N  0.75622345  0.35472679  0.83240554    -0.35800
N235        N  0.76592181  0.35720359  0.82533764    -0.28000
C236        C  0.76954303  0.36750979  0.83021899    -0.03200
C237        C  0.76191097  0.37167516  0.84102295     0.05400
C238        C  0.75355729  0.36333992  0.84199322     0.03500
H239        H  0.77747783  0.37141883  0.82675220     0.08600
H240        H  0.74613294  0.36340553  0.84934365     0.07400
N241        N  0.77086419  0.46719562  0.11080511    -0.27000
N242        N  0.76940595  0.47008189  0.09625093    -0.34800
C243        C  0.76826736  0.48138990  0.09515653     0.01400
C244        C  0.76896362  0.48607270  0.10966255     0.07400
C245        C  0.77078805  0.47683187  0.11940296    -0.05700
H246        H  0.76701898  0.48588925  0.08442942     0.08100
H247        H  0.77162019  0.47706819  0.13177602     0.09300
Cu248      Cu  0.76850484  0.45917384  0.07775342     0.44200
Cu249      Cu  0.77186166  0.44999725  0.11734849     0.42000
Cu250      Cu  0.76819795  0.43026973  0.08326254     0.43900
N251        N  0.76737391  0.44812199  0.05942891    -0.34400
N252        N  0.76733761  0.43698008  0.06129216    -0.28600
C253        C  0.76664868  0.43192555  0.04739544    -0.04700
C254        C  0.76609828  0.44041085  0.03628572     0.07500
C255        C  0.76664942  0.45056009  0.04440895     0.01300
H256        H  0.76640880  0.42281107  0.04554101     0.09000
H257        H  0.76670307  0.45911222  0.03977367     0.08000
N258        N  0.76910098  0.42547427  0.10615026    -0.35800
N259        N  0.77054920  0.43213914  0.11829921    -0.28000
C260        C  0.77046023  0.42554004  0.13101445    -0.03200
C261        C  0.76873714  0.41427121  0.12662701     0.05400
C262        C  0.76803381  0.41463344  0.11078808     0.03500
H263        H  0.77128157  0.42875090  0.14261555     0.08600
H264        H  0.76693260  0.40753682  0.10301336     0.07400
N265        N  0.78489539  0.33518516  0.20869974    -0.27000
N266        N  0.77974510  0.32518873  0.20958911    -0.34800
C267        C  0.78444870  0.31905467  0.22091699     0.01400
C268        C  0.79305689  0.32539175  0.22748570     0.07400
C269        C  0.79317198  0.33561540  0.21948498    -0.05700
H270        H  0.78145498  0.31076947  0.22459965     0.08100
H271        H  0.79837169  0.34300389  0.22189967     0.09300
Cu272      Cu  0.76556445  0.32057132  0.19705895     0.44200
Cu273      Cu  0.77903262  0.34788122  0.19393390     0.42000
Cu274      Cu  0.75110114  0.34142990  0.17521592     0.43900
N275        N  0.75007319  0.31749127  0.18668233    -0.34400
N276        N  0.74432729  0.32529520  0.17897939    -0.28600
C277        C  0.73428153  0.32080851  0.17448880    -0.04700
C278        C  0.73379107  0.30959332  0.17956966     0.07500
C279        C  0.74397513  0.30783466  0.18722391     0.01300
H280        H  0.72790918  0.32532538  0.16788003     0.09000
H281        H  0.74665754  0.30016717  0.19312007     0.08000
N282        N  0.76047672  0.35633236  0.17230464    -0.35800
N283        N  0.77038994  0.35866608  0.17886062    -0.28000
C284        C  0.77399422  0.36892694  0.17390663    -0.03200
C285        C  0.76600114  0.37327378  0.16373220     0.05400
C286        C  0.75758164  0.36501233  0.16301954     0.03500
H287        H  0.78203299  0.37272694  0.17713082     0.08600
H288        H  0.74989389  0.36522302  0.15616495     0.07400
N289        N  0.82912742  0.28678568  0.72320828    -0.27000
N290        N  0.82222031  0.27888077  0.72868421    -0.34800
C291        C  0.81638218  0.28315061  0.74061648     0.01400
C292        C  0.81967545  0.29434615  0.74287824     0.07400
C293        C  0.82772266  0.29644140  0.73150753    -0.05700
H294        H  0.80996808  0.27850224  0.74696571     0.08100
H295        H  0.83228540  0.30430946  0.72954780     0.09300
Cu296      Cu  0.82022322  0.26285505  0.71912094     0.44200
Cu297      Cu  0.83999189  0.28327121  0.70474105     0.42000
Cu298      Cu  0.83451739  0.25560164  0.68443815     0.43900
N299        N  0.81654886  0.24828797  0.70667178    -0.34400
N300        N  0.82150552  0.24551954  0.69357414    -0.28600
C301        C  0.81619712  0.23625946  0.68770020    -0.04700
C302        C  0.80737003  0.23322016  0.69754208     0.07500
C303        C  0.80802623  0.24098424  0.70950616     0.01300
H304        H  0.81821190  0.23241159  0.67673486     0.09000
H305        H  0.80248300  0.24155582  0.71939521     0.08000
N306        N  0.84727519  0.26731919  0.67877620    -0.35800
N307        N  0.84947645  0.27693728  0.68621979    -0.28000
C308        C  0.85859652  0.28197718  0.67969334    -0.03200
C309        C  0.86219209  0.27535797  0.66742222     0.05400
C310        C  0.85481409  0.26614371  0.66723249     0.03500
H311        H  0.86223605  0.28997380  0.68346426     0.08600
H312        H  0.85504354  0.25895452  0.65945276     0.07400
N313        N  0.95352094  0.28015100  0.60827276    -0.27000
N314        N  0.95628921  0.27984583  0.59356198    -0.34800
C315        C  0.96750691  0.27804756  0.59214023     0.01400
C316        C  0.97223844  0.27728027  0.60661394     0.07400
C317        C  0.96313212  0.27871564  0.61668162    -0.05700
H318        H  0.97190733  0.27721894  0.58127167     0.08100
H319        H  0.96340963  0.27827883  0.62909331     0.09300
Cu320      Cu  0.94495413  0.28132815  0.57560625     0.44200
Cu321      Cu  0.93636141  0.28152074  0.61496262     0.42000
Cu322      Cu  0.91548247  0.28204424  0.58173020     0.43900
N323        N  0.93348782  0.28163448  0.55769903    -0.34400
N324        N  0.92234420  0.28176010  0.55958940    -0.28600
C325        C  0.91732929  0.28141185  0.54560673    -0.04700
C326        C  0.92582296  0.28091767  0.53445411     0.07500
C327        C  0.93592481  0.28121767  0.54267486     0.01300
H328        H  0.90821938  0.28126136  0.54371375     0.09000
H329        H  0.94450208  0.28117761  0.53815118     0.08000
N330        N  0.91126787  0.28208224  0.60508558    -0.35800
N331        N  0.91847996  0.28191801  0.61681761    -0.28000
C332        C  0.91242649  0.28159081  0.62999321    -0.03200
C333        C  0.90086198  0.28154621  0.62647267     0.05400
C334        C  0.90055327  0.28187548  0.61054246     0.03500
H335        H  0.91624179  0.28099391  0.64127077     0.08600
H336        H  0.89305795  0.28185025  0.60330575     0.07400
N337        N  0.82405224  0.29150142  0.29350121    -0.27000
N338        N  0.81341444  0.28798308  0.29492008    -0.34800
C339        C  0.80668574  0.29430645  0.28584538     0.01400
C340        C  0.81333327  0.30222809  0.27819019     0.07400
C341        C  0.82436204  0.30016725  0.28329969    -0.05700
H342        H  0.79762507  0.29293336  0.28451083     0.08100
H343        H  0.83202651  0.30462223  0.27993527     0.09300
Cu344      Cu  0.80832732  0.27415642  0.30801495     0.44200
Cu345      Cu  0.83730557  0.28408925  0.30589034     0.42000
Cu346      Cu  0.82950088  0.25738966  0.32626769     0.43900
N347        N  0.80467974  0.25886818  0.31882901    -0.34400
N348        N  0.81254394  0.25230044  0.32510077    -0.28600
C349        C  0.80759489  0.24259743  0.33005130    -0.04700
C350        C  0.79601199  0.24317405  0.32685442     0.07500
C351        C  0.79453530  0.25362072  0.31969232     0.01300
H352        H  0.81209966  0.23562189  0.33547089     0.09000
H353        H  0.78675184  0.25697003  0.31479300     0.08000
N354        N  0.84506129  0.26578512  0.32823087    -0.35800
N355        N  0.84785888  0.27537523  0.32116404    -0.28000
C356        C  0.85811912  0.27882099  0.32631624    -0.03200
C357        C  0.86196573  0.27109538  0.33722942     0.05400
C358        C  0.85346225  0.26290055  0.33797331     0.03500
H359        H  0.86223076  0.28666066  0.32284814     0.08600
H360        H  0.85320986  0.25543076  0.34522888     0.07400
N361        N  0.95382536  0.28428100  0.39514060    -0.27000
N362        N  0.95610874  0.28588248  0.40984709    -0.34800
C363        C  0.96731760  0.28744638  0.41171143     0.01400
C364        C  0.97256487  0.28683131  0.39753384     0.07400
C365        C  0.96374519  0.28468203  0.38720784    -0.05700
H366        H  0.97139948  0.28856186  0.42276466     0.08100
H367        H  0.96449183  0.28350580  0.37492516     0.09300
Cu368      Cu  0.94435188  0.28518618  0.42736422     0.44200
Cu369      Cu  0.93698625  0.28152858  0.38782781     0.42000
Cu370      Cu  0.91577969  0.27909753  0.42064752     0.43900
N371        N  0.93281507  0.28351819  0.44502629    -0.34400
N372        N  0.92191498  0.28132133  0.44287917    -0.28600
C373        C  0.91679525  0.28035336  0.45673184    -0.04700
C374        C  0.92502369  0.28190238  0.46804280     0.07500
C375        C  0.93502755  0.28389237  0.46011247     0.01300
H376        H  0.90793045  0.27818004  0.45842841     0.09000
H377        H  0.94340233  0.28528493  0.46496754     0.08000
N378        N  0.91214833  0.27768577  0.39729377    -0.35800
N379        N  0.91934838  0.27877607  0.38564260    -0.28000
C380        C  0.91344347  0.27773477  0.37239037    -0.03200
C381        C  0.90205108  0.27582693  0.37588157     0.05400
C382        C  0.90163918  0.27582971  0.39175988     0.03500
H383        H  0.91722015  0.27818850  0.36108102     0.08600
H384        H  0.89416234  0.27481388  0.39888138     0.07400
N385        N  0.78588543  0.68635107  0.80344293    -0.27000
N386        N  0.78004489  0.69593615  0.80238832    -0.34800
C387        C  0.78598542  0.70352568  0.79415287     0.01400
C388        C  0.79611148  0.69853812  0.78965240     0.07400
C389        C  0.79575492  0.68755070  0.79560193    -0.05700
H390        H  0.78302929  0.71202464  0.79138592     0.08100
H391        H  0.80220901  0.68103244  0.79451752     0.09300
Cu392      Cu  0.76403703  0.69822915  0.81155591     0.44200
Cu393      Cu  0.77947978  0.67270083  0.81610681     0.42000
Cu394      Cu  0.74925219  0.67558917  0.83026183     0.43900
N395        N  0.74767722  0.69988438  0.81979607    -0.34400
N396        N  0.74185466  0.69167077  0.82656800    -0.28600
C397        C  0.73145839  0.69579825  0.83035351    -0.04700
C398        C  0.73086970  0.70719408  0.82586333     0.07500
C399        C  0.74130568  0.70934607  0.81908772     0.01300
H400        H  0.72489862  0.69094599  0.83613436     0.09000
H401        H  0.74407968  0.71718263  0.81371159     0.08000
N402        N  0.75990659  0.66138313  0.83362479    -0.35800
N403        N  0.77071302  0.66068299  0.82925290    -0.28000
C404        C  0.77516846  0.65085186  0.83452955    -0.03200
C405        C  0.76677471  0.64493414  0.84229093     0.05400
C406        C  0.75721678  0.65184560  0.84148219     0.03500
H407        H  0.78390194  0.64819938  0.83282112     0.08600
H408        H  0.74902313  0.65025579  0.84675446     0.07400
N409        N  0.76172642  0.55157555  0.89603535    -0.27000
N410        N  0.75947884  0.54894809  0.91048539    -0.34800
C411        C  0.75719473  0.53776983  0.91151903     0.01400
C412        C  0.75810187  0.53292688  0.89706856     0.07400
C413        C  0.76111316  0.54194432  0.88749068    -0.05700
H414        H  0.75561809  0.53335964  0.92222475     0.08100
H415        H  0.76282482  0.54150908  0.87529236     0.09300
Cu416      Cu  0.76131057  0.56005402  0.92881109     0.44200
Cu417      Cu  0.76557655  0.56841146  0.88962201     0.42000
Cu418      Cu  0.77241044  0.58783748  0.92223761     0.43900
N419        N  0.76669583  0.57064801  0.94640076    -0.34400
N420        N  0.77102927  0.58090316  0.94418535    -0.28600
C421        C  0.77424305  0.58525258  0.95788040    -0.04700
C422        C  0.77194181  0.57723293  0.96920548     0.07500
C423        C  0.76708651  0.56813683  0.96143444     0.01300
H424        H  0.77822781  0.59348560  0.95942251     0.09000
H425        H  0.76407467  0.56020925  0.96629065     0.08000
N426        N  0.77134918  0.59277829  0.89927529    -0.35800
N427        N  0.76852705  0.58603804  0.88765200    -0.28000
C428        C  0.76768485  0.59243771  0.87480818    -0.03200
C429        C  0.77028682  0.60366106  0.87846405     0.05400
C430        C  0.77255082  0.60351059  0.89406749     0.03500
H431        H  0.76529505  0.58917455  0.86364117     0.08600
H432        H  0.77446622  0.61077970  0.90128571     0.07400
N433        N  0.78908469  0.68760739  0.20430531    -0.27000
N434        N  0.78348490  0.69738050  0.20419949    -0.34800
C435        C  0.78916130  0.70506580  0.21262763     0.01400
C436        C  0.79890351  0.70000849  0.21839841     0.07400
C437        C  0.79853858  0.68884436  0.21303400    -0.05700
H438        H  0.78622056  0.71367701  0.21469027     0.08100
H439        H  0.80470533  0.68219287  0.21518019     0.09300
Cu440      Cu  0.76815041  0.70012653  0.19321200     0.44200
Cu441      Cu  0.78314125  0.67345890  0.19206911     0.42000
Cu442      Cu  0.75462135  0.67747166  0.17370233     0.43900
N443        N  0.75238547  0.70181680  0.18298106    -0.34400
N444        N  0.74706316  0.69340149  0.17593820    -0.28600
C445        C  0.73686077  0.69719152  0.17093437    -0.04700
C446        C  0.73579455  0.70860434  0.17500939     0.07500
C447        C  0.74583270  0.71117256  0.18263794     0.01300
H448        H  0.73078584  0.69205229  0.16467789     0.09000
H449        H  0.74813734  0.71920143  0.18790766     0.08000
N450        N  0.76476444  0.66300654  0.17171138    -0.35800
N451        N  0.77489039  0.66148996  0.17812058    -0.28000
C452        C  0.77911132  0.65137630  0.17343698    -0.03200
C453        C  0.77130769  0.64630615  0.16358801     0.05400
C454        C  0.76234191  0.65395992  0.16282228     0.03500
H455        H  0.78747807  0.64823265  0.17642188     0.08600
H456        H  0.75467471  0.65316358  0.15600383     0.07400
N457        N  0.77522191  0.55316063  0.11076735    -0.27000
N458        N  0.77425305  0.55018469  0.09619253    -0.34800
C459        C  0.77198157  0.53903907  0.09520519     0.01400
C460        C  0.77155625  0.53456531  0.10984456     0.07400
C461        C  0.77373184  0.54374806  0.11955027    -0.05700
H462        H  0.77080932  0.53448002  0.08450736     0.08100
H463        H  0.77391640  0.54364845  0.13198034     0.09300
Cu464      Cu  0.77603351  0.56101733  0.07785088     0.44200
Cu465      Cu  0.77776900  0.57030009  0.11661265     0.42000
Cu466      Cu  0.77916480  0.59029168  0.08208984     0.43900
N467        N  0.77751806  0.57164686  0.05924883    -0.34400
N468        N  0.77863425  0.58278450  0.06037767    -0.28600
C469        C  0.77892903  0.58725201  0.04606910    -0.04700
C470        C  0.77795392  0.57836832  0.03544667     0.07500
C471        C  0.77707549  0.56864664  0.04443303     0.01300
H472        H  0.77975306  0.59624961  0.04369881     0.09000
H473        H  0.77583769  0.55996347  0.04062036     0.08000
N474        N  0.77875208  0.59502216  0.10522178    -0.35800
N475        N  0.77846950  0.58816835  0.11735124    -0.28000
C476        C  0.77773102  0.59461209  0.13015950    -0.03200
C477        C  0.77734827  0.60598985  0.12590190     0.05400
C478        C  0.77810608  0.60588570  0.11004521     0.03500
H479        H  0.77695756  0.59123344  0.14168117     0.08600
H480        H  0.77800286  0.61318183  0.10246029     0.07400
N481        N  0.83006587  0.73180045  0.72533954    -0.27000
N482        N  0.82293480  0.73951033  0.73081111    -0.34800
C483        C  0.81776752  0.73538580  0.74334589     0.01400
C484        C  0.82168854  0.72445137  0.74603754     0.07400
C485        C  0.82947327  0.72239186  0.73429512    -0.05700
H486        H  0.81128577  0.73991639  0.74974194     0.08100
H487        H  0.83438022  0.71470549  0.73245953     0.09300
Cu488      Cu  0.81953606  0.75499635  0.72059779     0.44200
Cu489      Cu  0.84017580  0.73529202  0.70607706     0.42000
Cu490      Cu  0.83455890  0.76351572  0.68727283     0.43900
N491        N  0.81506085  0.76923244  0.70808618    -0.34400
N492        N  0.82055210  0.77268239  0.69568926    -0.28600
C493        C  0.81486964  0.78163444  0.68958735    -0.04700
C494        C  0.80528176  0.78370932  0.69853342     0.07500
C495        C  0.80574195  0.77568244  0.71013186     0.01300
H496        H  0.81711051  0.78581155  0.67892830     0.09000
H497        H  0.79947932  0.77430207  0.71904639     0.08000
N498        N  0.84764243  0.75216111  0.68124963    -0.35800
N499        N  0.84968189  0.74220374  0.68792282    -0.28000
C500        C  0.85894435  0.73746420  0.68133510    -0.03200
C501        C  0.86290012  0.74466835  0.66986991     0.05400
C502        C  0.85549571  0.75389297  0.67020573     0.03500
H503        H  0.86252105  0.72932227  0.68463355     0.08600
H504        H  0.85592814  0.76148879  0.66318707     0.07400
N505        N  0.95401770  0.72666710  0.61328101    -0.27000
N506        N  0.95631465  0.72214466  0.59971612    -0.34800
C507        C  0.96741347  0.71950782  0.59898339     0.01400
C508        C  0.97256089  0.72257899  0.61266292     0.07400
C509        C  0.96378905  0.72715191  0.62150485    -0.05700
H510        H  0.97155100  0.71609278  0.58886996     0.08100
H511        H  0.96445541  0.73060243  0.63299790     0.09300
Cu512      Cu  0.94493771  0.72101664  0.58168132     0.44200
Cu513      Cu  0.93745019  0.73185712  0.61917385     0.42000
Cu514      Cu  0.91733254  0.73272185  0.58625434     0.43900
N515        N  0.93391215  0.72324274  0.56343336    -0.34400
N516        N  0.92376079  0.72797604  0.56482537    -0.28600
C517        C  0.91905539  0.72893552  0.55073448    -0.04700
C518        C  0.92660795  0.72446156  0.54001071     0.07500
C519        C  0.93594716  0.72100143  0.54855486     0.01300
H520        H  0.91076853  0.73260347  0.54846643     0.09000
H521        H  0.94385532  0.71749857  0.54425773     0.08000
N522        N  0.91280667  0.73550588  0.60916814    -0.35800
N523        N  0.91988198  0.73509997  0.62102023    -0.28000
C524        C  0.91383752  0.73667324  0.63404677    -0.03200
C525        C  0.90241517  0.73815167  0.63026287     0.05400
C526        C  0.90217427  0.73740075  0.61436155     0.03500
H527        H  0.91753351  0.73674490  0.64543090     0.08600
H528        H  0.89472630  0.73786059  0.60705378     0.07400
N529        N  0.83171207  0.73145068  0.28564649    -0.27000
N530        N  0.82368081  0.73875223  0.28159378    -0.34800
C531        C  0.81853661  0.73503065  0.26879886     0.01400
C532        C  0.82339809  0.72478065  0.26450833     0.07400
C533        C  0.83172988  0.72269750  0.27552295    -0.05700
H534        H  0.81144035  0.73929595  0.26332107     0.08100
H535        H  0.83738049  0.71542455  0.27611238     0.09300
Cu536      Cu  0.81910081  0.75301211  0.29405762     0.44200
Cu537      Cu  0.84201859  0.73442190  0.30485324     0.42000
Cu538      Cu  0.83444895  0.76043674  0.32760128     0.43900
N539        N  0.81437161  0.76637618  0.30812476    -0.34400
N540        N  0.82007648  0.76946697  0.32052039    -0.28600
C541        C  0.81469733  0.77840907  0.32709806    -0.04700
C542        C  0.80506182  0.78088669  0.31844894     0.07500
C543        C  0.80518318  0.77306546  0.30654781     0.01300
H544        H  0.81739459  0.78254106  0.33760569     0.09000
H545        H  0.79901717  0.77228131  0.29736698     0.08000
N546        N  0.84821470  0.74965024  0.33203548    -0.35800
N547        N  0.85101706  0.74048261  0.32397142    -0.28000
C548        C  0.86055445  0.73591280  0.33004342    -0.03200
C549        C  0.86386986  0.74241118  0.34260375     0.05400
C550        C  0.85582848  0.75105123  0.34343356     0.03500
H551        H  0.86472474  0.72835227  0.32567902     0.08600
H552        H  0.85563325  0.75805851  0.35150763     0.07400
N553        N  0.95545542  0.72953883  0.40160101    -0.27000
N554        N  0.95754939  0.72577606  0.41562759    -0.34800
C555        C  0.96878658  0.72439591  0.41750179     0.01400
C556        C  0.97428846  0.72739910  0.40404723     0.07400
C557        C  0.96552236  0.73069734  0.39415336    -0.05700
H558        H  0.97268441  0.72172488  0.42817607     0.08100
H559        H  0.96637489  0.73365511  0.38244165     0.09300
Cu560      Cu  0.94552702  0.72346580  0.43259397     0.44200
Cu561      Cu  0.93864198  0.73275885  0.39434610     0.42000
Cu562      Cu  0.91768242  0.73312990  0.42699462     0.43900
N563        N  0.93399250  0.72443210  0.45038064    -0.34400
N564        N  0.92366165  0.72868331  0.44872260    -0.28600
C565        C  0.91865256  0.72926372  0.46266435    -0.04700
C566        C  0.92625622  0.72505767  0.47354298     0.07500
C567        C  0.93584703  0.72205655  0.46524538     0.01300
H568        H  0.91015195  0.73248310  0.46470377     0.09000
H569        H  0.94381740  0.71883540  0.46977570     0.08000
N570        N  0.91363071  0.73484468  0.40377447    -0.35800
N571        N  0.92085370  0.73457912  0.39207656    -0.28000
C572        C  0.91484505  0.73551558  0.37888681    -0.03200
C573        C  0.90331476  0.73642998  0.38243527     0.05400
C574        C  0.90297668  0.73597026  0.39833832     0.03500
H575        H  0.91865269  0.73568174  0.36758380     0.08600
H576        H  0.89548210  0.73623421  0.40554973     0.07400
N577        N  0.71176467  0.83591173  0.71362796    -0.27000
N578        N  0.71716178  0.82603567  0.71428530    -0.34800
C579        C  0.71140242  0.81889505  0.72339757     0.01400
C580        C  0.70185346  0.82442573  0.72891746     0.07400
C581        C  0.70236262  0.83530054  0.72258660    -0.05700
H582        H  0.71408856  0.81027693  0.72598220     0.08100
H583        H  0.69624949  0.84211437  0.72404628     0.09300
Cu584      Cu  0.73243617  0.82235273  0.70367962     0.44200
Cu585      Cu  0.71771506  0.84905520  0.69957200     0.42000
Cu586      Cu  0.74615949  0.84324427  0.68153798     0.43900
N587        N  0.74888096  0.82026362  0.69581457    -0.34400
N588        N  0.75433286  0.82813620  0.68788537    -0.28600
C589        C  0.76508659  0.82451436  0.68530989    -0.04700
C590        C  0.76640463  0.81378905  0.69195075     0.07500
C591        C  0.75589048  0.81143968  0.69846982     0.01300
H592        H  0.77139571  0.82929162  0.67895992     0.09000
H593        H  0.75355161  0.80397920  0.70504988     0.08000
N594        N  0.73557504  0.85709906  0.67650295    -0.35800
N595        N  0.72558076  0.85924875  0.68296106    -0.28000
C596        C  0.72119312  0.86876798  0.67662506    -0.03200
C597        C  0.72869594  0.87281000  0.66557758     0.05400
C598        C  0.73772861  0.86517661  0.66591434     0.03500
H599        H  0.71299073  0.87232871  0.67961698     0.08600
H600        H  0.74541267  0.86546636  0.65908524     0.07400
N601        N  0.71392999  0.96442130  0.60826665    -0.27000
N602        N  0.71033789  0.96664377  0.59420102    -0.34800
C603        C  0.70803152  0.97777521  0.59282957     0.01400
C604        C  0.71033826  0.98305710  0.60664217     0.07400
C605        C  0.71415737  0.97433920  0.61624767    -0.05700
H606        H  0.70510625  0.98178684  0.58234905     0.08100
H607        H  0.71670971  0.97512449  0.62814603     0.09300
Cu608      Cu  0.70926383  0.95488634  0.57684362     0.44200
Cu609      Cu  0.71770505  0.94753033  0.61476306     0.42000
Cu610      Cu  0.71737766  0.92643018  0.58182133     0.43900
N611        N  0.70991582  0.94359639  0.55890015    -0.34400
N612        N  0.71317100  0.93289583  0.56032203    -0.28600
C613        C  0.71336153  0.92805306  0.54625084    -0.04700
C614        C  0.70995200  0.93619757  0.53556334     0.07500
C615        C  0.70793254  0.94593641  0.54409028     0.01300
H616        H  0.71593240  0.91939307  0.54397337     0.09000
H617        H  0.70573751  0.95431134  0.53985482     0.08000
N618        N  0.71992289  0.92248679  0.60488529    -0.35800
N619        N  0.71979755  0.92971470  0.61661842    -0.28000
C620        C  0.72117263  0.92370819  0.62972651    -0.03200
C621        C  0.72231124  0.91223748  0.62605178     0.05400
C622        C  0.72150944  0.91185099  0.61021892     0.03500
H623        H  0.72146973  0.92744824  0.64108652     0.08600
H624        H  0.72182365  0.90431753  0.60304561     0.07400
N625        N  0.71732952  0.83703941  0.28944398    -0.27000
N626        N  0.72498637  0.82919240  0.28602719    -0.34800
C627        C  0.72054460  0.82171361  0.27610265     0.01400
C628        C  0.70945481  0.82483894  0.27289049     0.07400
C629        C  0.70766901  0.83471507  0.28149773    -0.05700
H630        H  0.72505906  0.81433450  0.27177709     0.08100
H631        H  0.69983945  0.83952946  0.28241166     0.09300
Cu632      Cu  0.74087239  0.82783823  0.29576355     0.44200
Cu633      Cu  0.72120876  0.84963715  0.30577623     0.42000
Cu634      Cu  0.74975268  0.84495824  0.32590836     0.43900
N635        N  0.75556945  0.82448462  0.30775564    -0.34400
N636        N  0.75909400  0.83067559  0.31946703    -0.28600
C637        C  0.76831084  0.82558137  0.32576811    -0.04700
C638        C  0.77046889  0.81559396  0.31764420     0.07500
C639        C  0.76228126  0.81533534  0.30621693     0.01300
H640        H  0.77275190  0.82861370  0.33587363     0.09000
H641        H  0.76106933  0.80881763  0.29756960     0.08000
N642        N  0.73844013  0.85835814  0.32962388    -0.35800
N643        N  0.72852910  0.86014677  0.32268891    -0.28000
C644        C  0.72381237  0.86967431  0.32860376    -0.03200
C645        C  0.73103554  0.87404619  0.33978608     0.05400
C646        C  0.74018581  0.86662080  0.34004649     0.03500
H647        H  0.71555816  0.87294839  0.32530009     0.08600
H648        H  0.74764168  0.86713757  0.34734204     0.07400
N649        N  0.71521860  0.96522076  0.39544503    -0.27000
N650        N  0.71205979  0.96795916  0.40954663    -0.34800
C651        C  0.70970612  0.97911696  0.41017214     0.01400
C652        C  0.71143173  0.98382658  0.39581222     0.07400
C653        C  0.71507449  0.97477303  0.38670616    -0.05700
H654        H  0.70725039  0.98356268  0.42055496     0.08100
H655        H  0.71736641  0.97509555  0.37468158     0.09300
Cu656      Cu  0.71168889  0.95698493  0.42808515     0.44200
Cu657      Cu  0.71928798  0.94834539  0.38971534     0.42000
Cu658      Cu  0.72111539  0.92872911  0.42340856     0.43900
N659        N  0.71309755  0.94579517  0.44629373    -0.34400
N660        N  0.71688027  0.93526689  0.44473080    -0.28600
C661        C  0.71696281  0.93016302  0.45858382    -0.04700
C662        C  0.71299760  0.93789305  0.46941662     0.07500
C663        C  0.71064584  0.94770831  0.46112214     0.01300
H664        H  0.71948496  0.92139128  0.46049665     0.09000
H665        H  0.70749602  0.95577427  0.46556415     0.08000
N666        N  0.72300269  0.92389889  0.40065760    -0.35800
N667        N  0.72216174  0.93071469  0.38857595    -0.28000
C668        C  0.72327020  0.92437248  0.37574774    -0.03200
C669        C  0.72498556  0.91308304  0.37994783     0.05400
C670        C  0.72472029  0.91315153  0.39584104     0.03500
H671        H  0.72290123  0.92775578  0.36419341     0.08600
H672        H  0.72537438  0.90588891  0.40344181     0.07400
N673        N  0.53994160  0.79422180  0.89537548    -0.27000
N674        N  0.53792296  0.79828734  0.90928291    -0.34800
C675        C  0.52698246  0.80148456  0.91028983     0.01400
C676        C  0.52164859  0.79920168  0.89646995     0.07400
C677        C  0.53013462  0.79455608  0.88722364    -0.05700
H678        H  0.52298322  0.80446408  0.92074453     0.08100
H679        H  0.52919565  0.79141343  0.87560244     0.09300
Cu680      Cu  0.54901169  0.79706633  0.92765076     0.44200
Cu681      Cu  0.55605229  0.78800532  0.88910066     0.42000
Cu682      Cu  0.57535842  0.78321036  0.92230467     0.43900
N683        N  0.55865794  0.79113883  0.94584905    -0.34400
N684        N  0.56841867  0.78572969  0.94404817    -0.28600
C685        C  0.57209623  0.78211779  0.95790545    -0.04700
C686        C  0.56415073  0.78532259  0.96895530     0.07500
C687        C  0.55580181  0.79110541  0.96078608     0.01300
H688        H  0.57978886  0.77723461  0.95972176     0.09000
H689        H  0.54814093  0.79498557  0.96524677     0.08000
N690        N  0.58001687  0.78156862  0.89931716    -0.35800
N691        N  0.57324084  0.78318856  0.88734399    -0.28000
C692        C  0.57934458  0.78154551  0.87438337    -0.03200
C693        C  0.59046037  0.77867703  0.87837161     0.05400
C694        C  0.59050108  0.77886765  0.89429891     0.03500
H695        H  0.57593254  0.78240957  0.86289515     0.08600
H696        H  0.59769412  0.77748593  0.90181884     0.07400
N697        N  0.66797122  0.79101646  0.79332044    -0.27000
N698        N  0.67776539  0.78558954  0.79169369    -0.34800
C699        C  0.68395287  0.79073451  0.78079117     0.01400
C700        C  0.67785770  0.79990961  0.77521162     0.07400
C701        C  0.66774028  0.79992660  0.78345831    -0.05700
H702        H  0.69219493  0.78780096  0.77687840     0.08100
H703        H  0.66057984  0.80560290  0.78189893     0.09300
Cu704      Cu  0.68233073  0.77094619  0.80334020     0.44200
Cu705      Cu  0.65541995  0.78496908  0.80821139     0.42000
Cu706      Cu  0.66241565  0.75758661  0.82812436     0.43900
N707        N  0.68588582  0.75594037  0.81479097    -0.34400
N708        N  0.67850139  0.75061135  0.82369798    -0.28600
C709        C  0.68340213  0.74097080  0.82906581    -0.04700
C710        C  0.69444249  0.74035567  0.82334277     0.07500
C711        C  0.69566244  0.75001432  0.81437520     0.01300
H712        H  0.67934452  0.73502048  0.83682716     0.09000
H713        H  0.70310610  0.75251280  0.80787463     0.08000
N714        N  0.64737952  0.76697360  0.83107362    -0.35800
N715        N  0.64486557  0.77662649  0.82392427    -0.28000
C716        C  0.63464967  0.78034869  0.82888170    -0.03200
C717        C  0.63046894  0.77273910  0.83970701     0.05400
C718        C  0.63883339  0.76440099  0.84078935     0.03500
H719        H  0.63078495  0.78826887  0.82524294     0.08600
H720        H  0.63877874  0.75699288  0.84821525     0.07400
N721        N  0.67271035  0.78917267  0.21231442    -0.27000
N722        N  0.68240504  0.78347146  0.21251117    -0.34800
C723        C  0.68950620  0.78809598  0.22278195     0.01400
C724        C  0.68413936  0.79720768  0.22974953     0.07400
C725        C  0.67347202  0.79776555  0.22269247    -0.05700
H726        H  0.69806478  0.78504178  0.22485918     0.08100
H727        H  0.66676427  0.80381815  0.22509100     0.09300
Cu728      Cu  0.68603072  0.76952986  0.19921651     0.44200
Cu729      Cu  0.65958437  0.78414959  0.19721615     0.42000
Cu730      Cu  0.66684292  0.75810476  0.17290937     0.43900
N731        N  0.68989218  0.75542975  0.18636265    -0.34400
N732        N  0.68275899  0.75066039  0.17658242    -0.28600
C733        C  0.68793868  0.74154190  0.17012483    -0.04700
C734        C  0.69891888  0.74081201  0.17606700     0.07500
C735        C  0.69975573  0.74971462  0.18637775     0.01300
H736        H  0.68413741  0.73606393  0.16153903     0.09000
H737        H  0.70698529  0.75185521  0.19351666     0.08000
N738        N  0.65230237  0.76828996  0.17080686    -0.35800
N739        N  0.64949162  0.77719622  0.17943406    -0.28000
C740        C  0.63945232  0.78137611  0.17432344    -0.03200
C741        C  0.63589578  0.77496604  0.16178536     0.05400
C742        C  0.64426109  0.76676172  0.15998223     0.03500
H743        H  0.63519695  0.78874002  0.17912507     0.08600
H744        H  0.64446660  0.76004727  0.15146318     0.07400
N745        N  0.54148478  0.77488093  0.11036359    -0.27000
N746        N  0.53824866  0.77167627  0.09646615    -0.34800
C747        C  0.52689379  0.77047600  0.09613080     0.01400
C748        C  0.52259726  0.77314599  0.11044072     0.07400
C749        C  0.53208080  0.77603044  0.11921697    -0.05700
H750        H  0.52204069  0.76845772  0.08590820     0.08100
H751        H  0.53211679  0.77886045  0.13104437     0.09300
Cu752      Cu  0.54880339  0.77098765  0.07757310     0.44200
Cu753      Cu  0.55876261  0.77751326  0.11566971     0.42000
Cu754      Cu  0.57754580  0.77959654  0.08134213     0.43900
N755        N  0.55895799  0.77441428  0.05881594    -0.34400
N756        N  0.56960491  0.77791492  0.05993677    -0.28600
C757        C  0.57357419  0.78010922  0.04568564    -0.04700
C758        C  0.56494364  0.77788174  0.03509364     0.07500
C759        C  0.55582499  0.77430393  0.04398623     0.01300
H760        H  0.58199030  0.78340602  0.04332181     0.09000
H761        H  0.54742271  0.77189079  0.04004714     0.08000
N762        N  0.58324578  0.77943683  0.10414244    -0.35800
N763        N  0.57664800  0.77861840  0.11643568    -0.28000
C764        C  0.58333397  0.77818597  0.12905175    -0.03200
C765        C  0.59471385  0.77878885  0.12458171     0.05400
C766        C  0.59421190  0.77957471  0.10866076     0.03500
H767        H  0.58007768  0.77712844  0.14057901     0.08600
H768        H  0.60132417  0.78011040  0.10079027     0.07400
N769        N  0.23813911  0.55550382  0.90127770    -0.27000
N770        N  0.24054367  0.55293820  0.91569636    -0.34800
C771        C  0.24252926  0.54172009  0.91686008     0.01400
C772        C  0.24136247  0.53681176  0.90249199     0.07400
C773        C  0.23845493  0.54581656  0.89284014    -0.05700
H774        H  0.24425680  0.53738557  0.92758617     0.08100
H775        H  0.23671274  0.54535585  0.88065170     0.09300
Cu776      Cu  0.24000487  0.56436348  0.93374031     0.44200
Cu777      Cu  0.23470344  0.57235360  0.89481951     0.42000
Cu778      Cu  0.23167391  0.59290649  0.92778531     0.43900
N779        N  0.23638318  0.57530513  0.95167110    -0.34400
N780        N  0.23281642  0.58587322  0.94979927    -0.28600
C781        C  0.23003423  0.59020635  0.96369418    -0.04700
C782        C  0.23195794  0.58187966  0.97486879     0.07500
C783        C  0.23605541  0.57260660  0.96662341     0.01300
H784        H  0.22644666  0.59859816  0.96535541     0.09000
H785        H  0.23834915  0.56429805  0.97098683     0.08000
N786        N  0.23235912  0.59731485  0.90450329    -0.35800
N787        N  0.23322564  0.59010246  0.89282253    -0.28000
C788        C  0.23389422  0.59612587  0.87965715    -0.03200
C789        C  0.23352951  0.60766245  0.88316009     0.05400
C790        C  0.23255876  0.60804137  0.89902030     0.03500
H791        H  0.23508628  0.59235864  0.86842720     0.08600
H792        H  0.23217836  0.61559831  0.90613832     0.07400
N793        N  0.22214567  0.67764657  0.78621340    -0.27000
N794        N  0.22928055  0.68523398  0.78046181    -0.34800
C795        C  0.22435489  0.69052805  0.76854045     0.01400
C796        C  0.21348330  0.68623325  0.76663956     0.07400
C797        C  0.21231599  0.67806803  0.77812105    -0.05700
H798        H  0.22820127  0.69747799  0.76222893     0.08100
H799        H  0.20486564  0.67295281  0.78053943     0.09300
Cu800      Cu  0.24477974  0.68946196  0.79014277     0.44200
Cu801      Cu  0.22667477  0.66769636  0.80520319     0.42000
Cu802      Cu  0.25347012  0.67679817  0.82519105     0.43900
N803        N  0.25877250  0.69507696  0.80239532    -0.34400
N804        N  0.26208504  0.69062482  0.81558721    -0.28600
C805        C  0.27098272  0.69672794  0.82099615    -0.04700
C806        C  0.27322763  0.70554333  0.81074611     0.07500
C807        C  0.26534887  0.70408634  0.79904576     0.01300
H808        H  0.27522111  0.69512616  0.83181988     0.09000
H809        H  0.26432935  0.70924564  0.78884807     0.08000
N810        N  0.24352364  0.66270915  0.83113333    -0.35800
N811        N  0.23415992  0.65934595  0.82393141    -0.28000
C812        C  0.23039896  0.64966694  0.83054107    -0.03200
C813        C  0.23764004  0.64680749  0.84254895     0.05400
C814        C  0.24585843  0.65530203  0.84252363     0.03500
H815        H  0.22288019  0.64507712  0.82689371     0.08600
H816        H  0.25322075  0.65592768  0.84992664     0.07400
N817        N  0.21203181  0.55408398  0.11194079    -0.27000
N818        N  0.20855594  0.55212185  0.09773095    -0.34800
C819        C  0.20641041  0.54097174  0.09598132     0.01400
C820        C  0.20874703  0.53540362  0.10963053     0.07400
C821        C  0.21232799  0.54402149  0.11956466    -0.05700
H822        H  0.20401814  0.53708426  0.08517116     0.08100
H823        H  0.21508949  0.54304035  0.13134951     0.09300
Cu824      Cu  0.20896441  0.56385477  0.08002613     0.44200
Cu825      Cu  0.21643367  0.57062706  0.11930652     0.42000
Cu826      Cu  0.21992420  0.59121978  0.08708817     0.43900
N827        N  0.21425948  0.57448528  0.06248503    -0.34400
N828        N  0.21868429  0.58466181  0.06492923    -0.28600
C829        C  0.22242792  0.58891650  0.05143698    -0.04700
C830        C  0.22036222  0.58091469  0.03997713     0.07500
C831        C  0.21507028  0.57193328  0.04749190     0.01300
H832        H  0.22676793  0.59700130  0.05017706     0.09000
H833        H  0.21220096  0.56397789  0.04255772     0.08000
N834        N  0.22020109  0.59549241  0.11032051    -0.35800
N835        N  0.21912188  0.58829786  0.12195599    -0.28000
C836        C  0.21977640  0.59427651  0.13520445    -0.03200
C837        C  0.22130928  0.60578619  0.13177514     0.05400
C838        C  0.22151687  0.60611009  0.11584017     0.03500
H839        H  0.21931654  0.59043700  0.14648243     0.08600
H840        H  0.22246212  0.61355970  0.10862662     0.07400
N841        N  0.21690357  0.67881264  0.22796351    -0.27000
N842        N  0.22454777  0.68671081  0.23123027    -0.34800
C843        C  0.22113589  0.69272905  0.24344936     0.01400
C844        C  0.21074511  0.68858547  0.24835246     0.07400
C845        C  0.20822861  0.67974606  0.23816691    -0.05700
H846        H  0.22581662  0.69984952  0.24820231     0.08100
H847        H  0.20076566  0.67434298  0.23827802     0.09300
Cu848      Cu  0.23909945  0.68990675  0.21882614     0.44200
Cu849      Cu  0.21963453  0.66748661  0.20955529     0.42000
Cu850      Cu  0.24587908  0.67460778  0.18586573     0.43900
N851        N  0.25268137  0.69433751  0.20517075    -0.34400
N852        N  0.25551236  0.68871977  0.19261191    -0.28600
C853        C  0.26449034  0.69402161  0.18600334    -0.04700
C854        C  0.26726088  0.70349901  0.19488014     0.07500
C855        C  0.25956512  0.70335594  0.20689786     0.01300
H856        H  0.26840261  0.69144397  0.17529614     0.09000
H857        H  0.25889646  0.70948137  0.21615692     0.08000
N858        N  0.23491478  0.66078575  0.18239737    -0.35800
N859        N  0.22580905  0.65808015  0.19065891    -0.28000
C860        C  0.22122215  0.64844809  0.18479941    -0.03200
C861        C  0.22761969  0.64500737  0.17218734     0.05400
C862        C  0.23623660  0.65303633  0.17115222     0.03500
H863        H  0.21365366  0.64435040  0.18924774     0.08600
H864        H  0.24315256  0.65318743  0.16294571     0.07400
N865        N  0.03998896  0.72714575  0.61555616    -0.27000
N866        N  0.03762268  0.72496717  0.60098193    -0.34800
C867        C  0.02653774  0.72248387  0.59952226     0.01400
C868        C  0.02145872  0.72322599  0.61376710     0.07400
C869        C  0.03020810  0.72632608  0.62373309    -0.05700
H870        H  0.02235880  0.72075141  0.58867900     0.08100
H871        H  0.02951246  0.72782967  0.63595644     0.09300
Cu872      Cu  0.04874229  0.72670265  0.58283831     0.44200
Cu873      Cu  0.05673399  0.73079106  0.62290916     0.42000
Cu874      Cu  0.07715182  0.73309801  0.59032660     0.43900
N875        N  0.05999401  0.73077111  0.56554193    -0.34400
N876        N  0.07082989  0.73299245  0.56817106    -0.28600
C877        C  0.07593513  0.73574801  0.55481382    -0.04700
C878        C  0.06778904  0.73536668  0.54329473     0.07500
C879        C  0.05779691  0.73219466  0.55054533     0.01300
H880        H  0.08475007  0.73829460  0.55369997     0.09000
H881        H  0.04948708  0.73113240  0.54532807     0.08000
N882        N  0.08152923  0.73381540  0.61332648    -0.35800
N883        N  0.07450965  0.73303652  0.62519536    -0.28000
C884        C  0.08073540  0.73395798  0.63822264    -0.03200
C885        C  0.09211910  0.73553820  0.63426880     0.05400
C886        C  0.09221282  0.73531301  0.61840360     0.03500
H887        H  0.07722477  0.73369794  0.64970796     0.08600
H888        H  0.09954720  0.73606365  0.61096257     0.07400
N889        N  0.17210918  0.72410527  0.71609622    -0.27000
N890        N  0.18186729  0.72971711  0.71625137    -0.34800
C891        C  0.18975986  0.72348466  0.72353757     0.01400
C892        C  0.18482800  0.71341679  0.72834256     0.07400
C893        C  0.17354481  0.71410188  0.72359457    -0.05700
H894        H  0.19851589  0.72610272  0.72518449     0.08100
H895        H  0.16703559  0.70767722  0.72497582     0.09300
Cu896      Cu  0.18452339  0.74547963  0.70634056     0.44200
Cu897      Cu  0.15804703  0.73040426  0.70404411     0.42000
Cu898      Cu  0.16299367  0.75871376  0.68460630     0.43900
N899        N  0.18681149  0.76121911  0.69619684    -0.34400
N900        N  0.17884510  0.76651443  0.68822190    -0.28600
C901        C  0.18305041  0.77664197  0.68340053    -0.04700
C902        C  0.19427400  0.77760703  0.68846626     0.07500
C903        C  0.19624537  0.76765948  0.69661805     0.01300
H904        H  0.17836231  0.78276832  0.67659183     0.09000
H905        H  0.20391047  0.76532885  0.70275149     0.08000
N906        N  0.14863791  0.74823927  0.68180875    -0.35800
N907        N  0.14682216  0.73832594  0.68870359    -0.28000
C908        C  0.13696033  0.73389009  0.68345875    -0.03200
C909        C  0.13228997  0.74130264  0.67272721     0.05400
C910        C  0.13998270  0.75028117  0.67204377     0.03500
H911        H  0.13371555  0.72563219  0.68680005     0.08600
H912        H  0.13942705  0.75776584  0.66480974     0.07400
N913        N  0.04182257  0.73496509  0.40389161    -0.27000
N914        N  0.03893419  0.73482983  0.41856863    -0.34800
C915        C  0.02778046  0.73268842  0.41993834     0.01400
C916        C  0.02317591  0.73145994  0.40546405     0.07400
C917        C  0.03230149  0.73305786  0.39544242    -0.05700
H918        H  0.02329881  0.73218479  0.43078541     0.08100
H919        H  0.03206672  0.73262217  0.38303315     0.09300
Cu920      Cu  0.04981791  0.73763675  0.43663031     0.44200
Cu921      Cu  0.05900358  0.73733645  0.39732420     0.42000
Cu922      Cu  0.07906004  0.74088422  0.43091345     0.43900
N923        N  0.06089610  0.73999079  0.45458487    -0.34400
N924        N  0.07200600  0.74095504  0.45282792    -0.28600
C925        C  0.07688222  0.74180807  0.46683423    -0.04700
C926        C  0.06829711  0.74153009  0.47783062     0.07500
C927        C  0.05831622  0.74029142  0.46955943     0.01300
H928        H  0.08593879  0.74254779  0.46885215     0.09000
H929        H  0.04979237  0.73924375  0.47406737     0.08000
N930        N  0.08372525  0.74087221  0.40782552    -0.35800
N931        N  0.07687532  0.73952905  0.39583489    -0.28000
C932        C  0.08326437  0.73995198  0.38291833    -0.03200
C933        C  0.09461035  0.74171291  0.38696802     0.05400
C934        C  0.09447185  0.74225627  0.40284938     0.03500
H935        H  0.07984553  0.73925558  0.37141425     0.08600
H936        H  0.10171893  0.74346343  0.41036444     0.07400
N937        N  0.17549470  0.72537767  0.30861272    -0.27000
N938        N  0.18553968  0.73041448  0.30919580    -0.34800
C939        C  0.19310183  0.72438355  0.30103879     0.01400
C940        C  0.18772563  0.71490074  0.29495305     0.07400
C941        C  0.17646260  0.71586685  0.29988507    -0.05700
H942        H  0.20179097  0.72709061  0.29911138     0.08100
H943        H  0.16951869  0.71014815  0.29726054     0.09300
Cu944      Cu  0.18861804  0.74596930  0.31932535     0.44200
Cu945      Cu  0.16140402  0.73251601  0.31995345     0.42000
Cu946      Cu  0.16587274  0.76232740  0.33428837     0.43900
N947        N  0.19031217  0.76296259  0.32473618    -0.34400
N948        N  0.18188417  0.76938353  0.32978085    -0.28600
C949        C  0.18562286  0.78024136  0.33090804    -0.04700
C950        C  0.19700076  0.78062351  0.32628169     0.07500
C951        C  0.19956910  0.76942558  0.32248721     0.01300
H952        H  0.18039743  0.78725421  0.33478558     0.09000
H953        H  0.20746131  0.76617453  0.31782554     0.08000
N954        N  0.15162033  0.75217560  0.33899153    -0.35800
N955        N  0.14994312  0.74166983  0.33383096    -0.28000
C956        C  0.14010677  0.73767791  0.33976716    -0.03200
C957        C  0.13540001  0.74595560  0.34924259     0.05400
C958        C  0.14294992  0.75503269  0.34837466     0.03500
H959        H  0.13682515  0.72918852  0.33776782     0.08600
H960        H  0.14226070  0.76314649  0.35420743     0.07400
N961        N  0.45436899  0.79501177  0.89862430    -0.27000
N962        N  0.45715296  0.79826755  0.91266555    -0.34800
C963        C  0.46826635  0.80083084  0.91314528     0.01400
C964        C  0.47288486  0.79907359  0.89874865     0.07400
C965        C  0.46384416  0.79524914  0.88977811    -0.05700
H966        H  0.47276592  0.80337184  0.92345010     0.08100
H967        H  0.46413349  0.79286588  0.87778105     0.09300
Cu968      Cu  0.44625536  0.79812562  0.93122459     0.44200
Cu969      Cu  0.43750273  0.79077079  0.89318356     0.42000
Cu970      Cu  0.41785077  0.78870654  0.92709834     0.43900
N971        N  0.43555137  0.79590696  0.94974798    -0.34400
N972        N  0.42498882  0.79217639  0.94853798    -0.28600
C973        C  0.42053511  0.79118887  0.96276843    -0.04700
C974        C  0.42873021  0.79455048  0.97341091     0.07500
C975        C  0.43814393  0.79739759  0.96462197     0.01300
H976        H  0.41199832  0.78820420  0.96517992     0.09000
H977        H  0.44647061  0.79994976  0.96867385     0.08000
N978        N  0.41297249  0.78735990  0.90410273    -0.35800
N979        N  0.41982354  0.78829872  0.89206260    -0.28000
C980        C  0.41349496  0.78773290  0.87915131    -0.03200
C981        C  0.40214625  0.78633778  0.88320203     0.05400
C982        C  0.40219921  0.78607060  0.89911401     0.03500
H983        H  0.41694849  0.78825464  0.86765421     0.08600
H984        H  0.39487479  0.78532761  0.90659087     0.07400
N985        N  0.32882724  0.79614620  0.78922832    -0.27000
N986        N  0.32206919  0.78815028  0.78364771    -0.34800
C987        C  0.31609481  0.79234272  0.77183579     0.01400
C988        C  0.31907106  0.80362008  0.76970075     0.07400
C989        C  0.32717037  0.80582005  0.78103114    -0.05700
H990        H  0.30970532  0.78758359  0.76558109     0.08100
H991        H  0.33154107  0.81378727  0.78310681     0.09300
Cu992      Cu  0.31998106  0.77212797  0.79281294     0.44200
Cu993      Cu  0.33968136  0.79261497  0.80779753     0.42000
Cu994      Cu  0.33394747  0.76397268  0.82629472     0.43900
N995        N  0.31581239  0.75737842  0.80427797    -0.34400
N996        N  0.32079406  0.75414579  0.81713297    -0.28600
C997        C  0.31560352  0.74459967  0.82229026    -0.04700
C998        C  0.30686072  0.74181485  0.81212417     0.07500
C999        C  0.30735639  0.75014408  0.80086720     0.01300
H1000       H  0.31775462  0.74030055  0.83288882     0.09000
H1001       H  0.30184451  0.75103802  0.79097631     0.08000
N1002       N  0.34703935  0.77522574  0.83209774    -0.35800
N1003       N  0.34920689  0.78524831  0.82568332    -0.28000
C1004       C  0.35856040  0.78971133  0.83240719    -0.03200
C1005       C  0.36241261  0.78222538  0.84364498     0.05400
C1006       C  0.35489020  0.77314130  0.84298552     0.03500
H1007       H  0.36224977  0.79785493  0.82937116     0.08600
H1008       H  0.35520587  0.76536992  0.84964207     0.07400
N1009       N  0.45556872  0.78032256  0.11284846    -0.27000
N1010       N  0.45894734  0.78448664  0.09947541    -0.34800
C1011       C  0.47037029  0.78448409  0.09891360     0.01400
C1012       C  0.47448369  0.78014069  0.11253916     0.07400
C1013       C  0.46489053  0.77746193  0.12112754    -0.05700
H1014       H  0.47532748  0.78696728  0.08898694     0.08100
H1015       H  0.46469837  0.77344892  0.13231897     0.09300
Cu1016     Cu  0.44827352  0.78862098  0.08140198     0.44200
Cu1017     Cu  0.43828029  0.77852999  0.11840579     0.42000
Cu1018     Cu  0.41886538  0.78297152  0.08539200     0.43900
N1019       N  0.43706800  0.78956389  0.06309870    -0.34400
N1020       N  0.42614689  0.78706472  0.06434720    -0.28600
C1021       C  0.42128117  0.78769341  0.05034280    -0.04700
C1022       C  0.42958048  0.79079329  0.03977704     0.07500
C1023       C  0.43946700  0.79192810  0.04834773     0.01300
H1024       H  0.41236252  0.78609285  0.04808188     0.09000
H1025       H  0.44788148  0.79398347  0.04410450     0.08000
N1026       N  0.41361069  0.78007927  0.10787086    -0.35800
N1027       N  0.42043932  0.77859574  0.11982049    -0.28000
C1028       C  0.41399058  0.77734888  0.13254207    -0.03200
C1029       C  0.40257219  0.77804921  0.12839857     0.05400
C1030       C  0.40273180  0.77975214  0.11265587     0.03500
H1031       H  0.41739560  0.77588978  0.14392257     0.08600
H1032       H  0.39544973  0.78087776  0.10518185     0.07400
N1033       N  0.32764810  0.79087459  0.21831123    -0.27000
N1034       N  0.31873948  0.78451248  0.22180979    -0.34800
C1035       C  0.31196819  0.79022422  0.23153240     0.01400
C1036       C  0.31675555  0.80076228  0.23449697     0.07400
C1037       C  0.32676990  0.80090992  0.22593534    -0.05700
H1038       H  0.30378788  0.78716634  0.23551079     0.08100
H1039       H  0.33252099  0.80803526  0.22452588     0.09300
Cu1040     Cu  0.31508079  0.76902601  0.21164947     0.44200
Cu1041     Cu  0.33929477  0.78534774  0.20160841     0.42000
Cu1042     Cu  0.33137654  0.75809608  0.18075421     0.43900
N1043       N  0.31065691  0.75436922  0.19993704    -0.34400
N1044       N  0.31653365  0.75005577  0.18838787    -0.28600
C1045       C  0.31112088  0.74061084  0.18326572    -0.04700
C1046       C  0.30127766  0.73908429  0.19194641     0.07500
C1047       C  0.30140421  0.74795079  0.20244884     0.01300
H1048       H  0.31399742  0.73539040  0.17377104     0.09000
H1049       H  0.29527074  0.74961802  0.21144809     0.08000
N1050       N  0.34570525  0.76820001  0.17636659    -0.35800
N1051       N  0.34864373  0.77760066  0.18387353    -0.28000
C1052       C  0.35854090  0.78149594  0.17803807    -0.03200
C1053       C  0.36195059  0.77434553  0.16621598     0.05400
C1054       C  0.35359657  0.76601866  0.16552962     0.03500
H1055       H  0.36286112  0.78909903  0.18198160     0.08600
H1056       H  0.35335513  0.75874198  0.15789899     0.07400
N1057       N  0.27945030  0.84065293  0.71509769    -0.27000
N1058       N  0.27450082  0.83053627  0.71546619    -0.34800
C1059       C  0.28104383  0.82323496  0.72333566     0.01400
C1060       C  0.29065960  0.82889976  0.72832232     0.07400
C1061       C  0.28935739  0.84002316  0.72303780    -0.05700
H1062       H  0.27885474  0.81440920  0.72544306     0.08100
H1063       H  0.29524919  0.84700759  0.72455207     0.09300
Cu1064     Cu  0.25895977  0.82658873  0.70579576     0.44200
Cu1065     Cu  0.27212652  0.85420469  0.70283039     0.42000
Cu1066     Cu  0.24345974  0.84715967  0.68559965     0.43900
N1067       N  0.24307074  0.82313573  0.69681872    -0.34400
N1068       N  0.23691727  0.83077886  0.68941809    -0.28600
C1069       C  0.22703819  0.82584694  0.68495872    -0.04700
C1070       C  0.22710362  0.81449934  0.68972959     0.07500
C1071       C  0.23743261  0.81319481  0.69723903     0.01300
H1072       H  0.22048789  0.83009780  0.67836257     0.09000
H1073       H  0.24065242  0.80554860  0.70268550     0.08000
N1074       N  0.25270082  0.86223566  0.68199604    -0.35800
N1075       N  0.26273338  0.86483121  0.68807837    -0.28000
C1076       C  0.26614894  0.87497928  0.68239341    -0.03200
C1077       C  0.25799248  0.87893053  0.67212778     0.05400
C1078       C  0.24958513  0.87062160  0.67230604     0.03500
H1079       H  0.27422640  0.87895582  0.68503663     0.08600
H1080       H  0.24177232  0.87055525  0.66572816     0.07400
N1081       N  0.26880523  0.97031873  0.61119901    -0.27000
N1082       N  0.27201476  0.97226191  0.59688814    -0.34800
C1083       C  0.27251870  0.98350086  0.59435738     0.01400
C1084       C  0.26951045  0.98912135  0.60767184     0.07400
C1085       C  0.26731061  0.98050104  0.61827045    -0.05700
H1086       H  0.27491917  0.98730292  0.58349803     0.08100
H1087       H  0.26455692  0.98155833  0.63004022     0.09300
Cu1088     Cu  0.27494484  0.95997502  0.58057706     0.44200
Cu1089     Cu  0.26626412  0.95354260  0.61906758     0.42000
Cu1090     Cu  0.26596128  0.93196116  0.58709642     0.43900
N1091       N  0.27465255  0.94801300  0.56338325    -0.34400
N1092       N  0.27074971  0.93757257  0.56532167    -0.28600
C1093       C  0.27070536  0.93221544  0.55159027    -0.04700
C1094       C  0.27487334  0.93972635  0.54056707     0.07500
C1095       C  0.27727992  0.94962712  0.54856951     0.01300
H1096       H  0.26787136  0.92354066  0.54980978     0.09000
H1097       H  0.28027358  0.95762990  0.54387299     0.08000
N1098       N  0.26380654  0.92837212  0.61039971    -0.35800
N1099       N  0.26420799  0.93581045  0.62186628    -0.28000
C1100       C  0.26311287  0.93006785  0.63524508    -0.03200
C1101       C  0.26190106  0.91850714  0.63205946     0.05400
C1102       C  0.26236554  0.91784551  0.61618337     0.03500
H1103       H  0.26307454  0.93406034  0.64645072     0.08600
H1104       H  0.26196967  0.91018684  0.60926462     0.07400
N1105       N  0.28152022  0.84126128  0.29043791    -0.27000
N1106       N  0.27406577  0.83345385  0.28610938    -0.34800
C1107       C  0.27856073  0.82690821  0.27508182     0.01400
C1108       C  0.28947824  0.83060483  0.27196007     0.07400
C1109       C  0.29117600  0.83970631  0.28209329    -0.05700
H1110       H  0.27425055  0.81964004  0.27010715     0.08100
H1111       H  0.29880845  0.84477760  0.28326591     0.09300
Cu1112     Cu  0.25825615  0.83082988  0.29558318     0.44200
Cu1113     Cu  0.27717126  0.85325241  0.30774433     0.42000
Cu1114     Cu  0.24805071  0.84798947  0.32497079     0.43900
N1115       N  0.24331471  0.82711164  0.30680439    -0.34400
N1116       N  0.23920493  0.83353569  0.31793231    -0.28600
C1117       C  0.22992350  0.82838271  0.32389320    -0.04700
C1118       C  0.22831415  0.81813485  0.31619176     0.07500
C1119       C  0.23694624  0.81768087  0.30540649     0.01300
H1120       H  0.22518509  0.83146748  0.33370591     0.09000
H1121       H  0.23876106  0.81078012  0.29753421     0.08000
N1122       N  0.25893287  0.86136423  0.33066553    -0.35800
N1123       N  0.26913982  0.86346468  0.32476440    -0.28000
C1124       C  0.27328102  0.87300917  0.33149298    -0.03200
C1125       C  0.26539575  0.87698101  0.34219178     0.05400
C1126       C  0.25643841  0.86935817  0.34121511     0.03500
H1127       H  0.28149727  0.87671695  0.32893456     0.08600
H1128       H  0.24851461  0.86966312  0.34752969     0.07400
N1129       N  0.27600308  0.96858542  0.40143599    -0.27000
N1130       N  0.27807041  0.97102582  0.41599467    -0.34800
C1131       C  0.28035234  0.98215075  0.41743486     0.01400
C1132       C  0.27969697  0.98715457  0.40312846     0.07400
C1133       C  0.27678683  0.97833040  0.39317580    -0.05700
H1134       H  0.28207650  0.98634888  0.42826481     0.08100
H1135       H  0.27545902  0.97893597  0.38090533     0.09300
Cu1136     Cu  0.27733522  0.95963256  0.43385047     0.44200
Cu1137     Cu  0.27258047  0.95176903  0.39453042     0.42000
Cu1138     Cu  0.27075447  0.93090239  0.42724722     0.43900
N1139       N  0.27600764  0.94807841  0.45145723    -0.34400
N1140       N  0.27333975  0.93726647  0.44935082    -0.28600
C1141       C  0.27303895  0.93203705  0.46316316    -0.04700
C1142       C  0.27582809  0.94000232  0.47437899     0.07500
C1143       C  0.27756114  0.95007140  0.46647221     0.01300
H1144       H  0.27111398  0.92311011  0.46489244     0.09000
H1145       H  0.27962343  0.95833304  0.47127327     0.08000
N1146       N  0.26951283  0.92681932  0.40394427    -0.35800
N1147       N  0.27026819  0.93405923  0.39229306    -0.28000
C1148       C  0.26954708  0.92811501  0.37903730    -0.03200
C1149       C  0.26825728  0.91660643  0.38246427     0.05400
C1150       C  0.26823337  0.91619541  0.39837986     0.03500
H1151       H  0.26988406  0.93193939  0.36774941     0.08600
H1152       H  0.26762945  0.90865629  0.40547800     0.07400
N1153       N  0.45562226  0.24043577  0.89913148    -0.27000
N1154       N  0.45837159  0.23892058  0.91370811    -0.34800
C1155       C  0.46972222  0.23864932  0.91512522     0.01400
C1156       C  0.47453953  0.24005182  0.90077901     0.07400
C1157       C  0.46533770  0.24103752  0.89077663    -0.05700
H1158       H  0.47416893  0.23760133  0.92593147     0.08100
H1159       H  0.46568910  0.24249632  0.87851696     0.09300
Cu1160     Cu  0.44689273  0.23786312  0.93155283     0.44200
Cu1161     Cu  0.43851487  0.24242360  0.89272970     0.42000
Cu1162     Cu  0.41791958  0.24430701  0.92607363     0.43900
N1163       N  0.43534285  0.23783529  0.94937151    -0.34400
N1164       N  0.42449569  0.24051880  0.94774409    -0.28600
C1165       C  0.41936195  0.23980003  0.96160231    -0.04700
C1166       C  0.42742465  0.23633711  0.97235989     0.07500
C1167       C  0.43744717  0.23528229  0.96411200     0.01300
H1168       H  0.41042372  0.24143472  0.96363490     0.09000
H1169       H  0.44576449  0.23300164  0.96849626     0.08000
N1170       N  0.41373469  0.24582643  0.90283856    -0.35800
N1171       N  0.42084184  0.24490458  0.89106169    -0.28000
C1172       C  0.41480242  0.24570092  0.87792073    -0.03200
C1173       C  0.40338834  0.24726903  0.88152458     0.05400
C1174       C  0.40309338  0.24727641  0.89744635     0.03500
H1175       H  0.41847967  0.24516554  0.86654420     0.08600
H1176       H  0.39564190  0.24786078  0.90469342     0.07400
N1177       N  0.33128083  0.23391180  0.78689587    -0.27000
N1178       N  0.32392982  0.24137549  0.78135506    -0.34800
C1179       C  0.31831466  0.23677447  0.76950602     0.01400
C1180       C  0.32218154  0.22577802  0.76734442     0.07400
C1181       C  0.33040145  0.22416340  0.77866696    -0.05700
H1182       H  0.31157082  0.24102561  0.76325928     0.08100
H1183       H  0.33536429  0.21654432  0.78072620     0.09300
Cu1184     Cu  0.32076421  0.25715123  0.79063772     0.44200
Cu1185     Cu  0.34184132  0.23828837  0.80532883     0.42000
Cu1186     Cu  0.33446406  0.26655671  0.82397589     0.43900
N1187       N  0.31578005  0.27169189  0.80192786    -0.34400
N1188       N  0.32052964  0.27536607  0.81473264    -0.28600
C1189       C  0.31471805  0.28464403  0.81963241    -0.04700
C1190       C  0.30581034  0.28673385  0.80939710     0.07500
C1191       C  0.30693140  0.27836860  0.79827234     0.01300
H1192       H  0.31661288  0.28930320  0.83004652     0.09000
H1193       H  0.30169743  0.27710242  0.78820102     0.08000
N1194       N  0.34850558  0.25621020  0.82927285    -0.35800
N1195       N  0.35119812  0.24636384  0.82270260    -0.28000
C1196       C  0.36095617  0.24246613  0.82898985    -0.03200
C1197       C  0.36459217  0.25015690  0.84007838     0.05400
C1198       C  0.35644492  0.25871721  0.83989909     0.03500
H1199       H  0.36495341  0.23448557  0.82588819     0.08600
H1200       H  0.35632880  0.26633388  0.84691186     0.07400
N1201       N  0.45395157  0.23069140  0.11145997    -0.27000
N1202       N  0.45606940  0.22717887  0.09731569    -0.34800
C1203       C  0.46725088  0.22528686  0.09567482     0.01400
C1204       C  0.47264609  0.22770556  0.10939409     0.07400
C1205       C  0.46395286  0.23123820  0.11919573    -0.05700
H1206       H  0.47122506  0.22273650  0.08499214     0.08100
H1207       H  0.46483647  0.23396147  0.13100969     0.09300
Cu1208     Cu  0.44427986  0.22624442  0.07983440     0.44200
Cu1209     Cu  0.43723741  0.23448940  0.11848719     0.42000
Cu1210     Cu  0.41641274  0.23578688  0.08567296     0.43900
N1211       N  0.43315166  0.22870853  0.06184409    -0.34400
N1212       N  0.42270159  0.23259197  0.06368625    -0.28600
C1213       C  0.41797067  0.23419747  0.04970496    -0.04700
C1214       C  0.42591684  0.23115252  0.03854408     0.07500
C1215       C  0.43540987  0.22771533  0.04680696     0.01300
H1216       H  0.40944282  0.23740469  0.04786932     0.09000
H1217       H  0.44358849  0.22512445  0.04225165     0.08000
N1218       N  0.41242981  0.23799142  0.10886012    -0.35800
N1219       N  0.41961011  0.23738694  0.12059907    -0.28000
C1220       C  0.41367712  0.23890298  0.13374264    -0.03200
C1221       C  0.40228602  0.24068842  0.13010325     0.05400
C1222       C  0.40188321  0.23998406  0.11422972     0.03500
H1223       H  0.41739760  0.23877710  0.14511261     0.08600
H1224       H  0.39439845  0.24055674  0.10702071     0.07400
N1225       N  0.32613885  0.22851884  0.21875376    -0.27000
N1226       N  0.31758139  0.23531963  0.22241441    -0.34800
C1227       C  0.31189810  0.23093631  0.23436305     0.01400
C1228       C  0.31699390  0.22079669  0.23853328     0.07400
C1229       C  0.32596389  0.21940405  0.22827898    -0.05700
H1230       H  0.30440192  0.23475911  0.23943845     0.08100
H1231       H  0.33199020  0.21244099  0.22795535     0.09300
Cu1232     Cu  0.31327134  0.25004171  0.21093010     0.44200
Cu1233     Cu  0.33768393  0.23295097  0.20141021     0.42000
Cu1234     Cu  0.33090717  0.26051106  0.18153750     0.43900
N1235       N  0.30890844  0.26405582  0.19796384    -0.34400
N1236       N  0.31544868  0.26826061  0.18702084    -0.28600
C1237       C  0.31008616  0.27725401  0.18056889    -0.04700
C1238       C  0.29960586  0.27860697  0.18776983     0.07500
C1239       C  0.29921066  0.27007147  0.19871927     0.01300
H1240       H  0.31338797  0.28216664  0.17103860     0.09000
H1241       H  0.29233393  0.26830650  0.20664017     0.08000
N1242       N  0.34561836  0.25081288  0.17824149    -0.35800
N1243       N  0.34808465  0.24104622  0.18513926    -0.28000
C1244       C  0.35827497  0.23735095  0.17997978    -0.03200
C1245       C  0.36243608  0.24512175  0.16931783     0.05400
C1246       C  0.35412292  0.25350281  0.16855490     0.03500
H1247       H  0.36219526  0.22942166  0.18347976     0.08600
H1248       H  0.35420830  0.26106058  0.16144972     0.07400
N1249       N  0.27574928  0.05662203  0.61074455    -0.27000
N1250       N  0.27859501  0.05420841  0.59642805    -0.34800
C1251       C  0.27804826  0.04292737  0.59423865     0.01400
C1252       C  0.27470292  0.03782423  0.60779974     0.07400
C1253       C  0.27338534  0.04676384  0.61815034    -0.05700
H1254       H  0.27948282  0.03877861  0.58330070     0.08100
H1255       H  0.27026824  0.04620776  0.62982418     0.09300
Cu1256     Cu  0.28126545  0.06608929  0.57941607     0.44200
Cu1257     Cu  0.27407467  0.07354133  0.61789283     0.42000
Cu1258     Cu  0.27359292  0.09461282  0.58509302     0.43900
N1259       N  0.28027591  0.07753567  0.56155629    -0.34400
N1260       N  0.27686554  0.08817831  0.56325512    -0.28600
C1261       C  0.27625697  0.09312286  0.54926687    -0.04700
C1262       C  0.27955613  0.08512974  0.53833492     0.07500
C1263       C  0.28203636  0.07538623  0.54662473     0.01300
H1264       H  0.27373606  0.10186993  0.54724386     0.09000
H1265       H  0.28462226  0.06718867  0.54209390     0.08000
N1266       N  0.27224653  0.09852771  0.60837486    -0.35800
N1267       N  0.27261845  0.09124037  0.62001210    -0.28000
C1268       C  0.27170087  0.09712331  0.63326773    -0.03200
C1269       C  0.27056384  0.10859913  0.62981097     0.05400
C1270       C  0.27102310  0.10913462  0.61394563     0.03500
H1271       H  0.27163576  0.09329295  0.64457242     0.08600
H1272       H  0.27065116  0.11670969  0.60687769     0.07400
N1273       N  0.28426873  0.18674227  0.71371696    -0.27000
N1274       N  0.27858348  0.19644455  0.71465910    -0.34800
C1275       C  0.28468957  0.20400453  0.72272118     0.01400
C1276       C  0.29475042  0.19889801  0.72717663     0.07400
C1277       C  0.29420575  0.18787459  0.72141971    -0.05700
H1278       H  0.28199657  0.21265253  0.72511470     0.08100
H1279       H  0.30066386  0.18134347  0.72231339     0.09300
Cu1280     Cu  0.26291088  0.19951748  0.70484623     0.44200
Cu1281     Cu  0.27809371  0.17307104  0.70085363     0.42000
Cu1282     Cu  0.24944492  0.17823768  0.68309694     0.43900
N1283       N  0.24721430  0.20195070  0.69479018    -0.34400
N1284       N  0.24185799  0.19398346  0.68689285    -0.28600
C1285       C  0.23184143  0.19822443  0.68185640    -0.04700
C1286       C  0.23103907  0.20947561  0.68668521     0.07500
C1287       C  0.24091437  0.21148308  0.69490876     0.01300
H1288       H  0.22578003  0.19359712  0.67487431     0.09000
H1289       H  0.24334717  0.21930274  0.70064241     0.08000
N1290       N  0.25953643  0.16387815  0.67979042    -0.35800
N1291       N  0.26965145  0.16192324  0.68601613    -0.28000
C1292       C  0.27370917  0.15197329  0.68052091    -0.03200
C1293       C  0.26580318  0.14747712  0.67033548     0.05400
C1294       C  0.25696308  0.15528583  0.67021292     0.03500
H1295       H  0.28202482  0.14855492  0.68324673     0.08600
H1296       H  0.24924022  0.15488634  0.66343154     0.07400
N1297       N  0.27688833  0.05460767  0.40040310    -0.27000
N1298       N  0.28099910  0.05267831  0.41429309    -0.34800
C1299       C  0.28338826  0.04157602  0.41582431     0.01400
C1300       C  0.28065129  0.03605801  0.40228436     0.07400
C1301       C  0.27649285  0.04460389  0.39270497    -0.05700
H1302       H  0.28649690  0.03773904  0.42632396     0.08100
H1303       H  0.27342029  0.04364833  0.38105546     0.09300
Cu1304     Cu  0.28232589  0.06465722  0.43146406     0.44200
Cu1305     Cu  0.27212350  0.07100338  0.39342896     0.42000
Cu1306     Cu  0.27235234  0.09247623  0.42525307     0.43900
N1307       N  0.28093475  0.07633074  0.44899688    -0.34400
N1308       N  0.27685048  0.08671164  0.44708024    -0.28600
C1309       C  0.27623582  0.09187162  0.46092569    -0.04700
C1310       C  0.28026615  0.08433085  0.47200002     0.07500
C1311       C  0.28308812  0.07456384  0.46393026     0.01300
H1312       H  0.27305397  0.10042011  0.46279876     0.09000
H1313       H  0.28604126  0.06653869  0.46860078     0.08000
N1314       N  0.26943146  0.09602274  0.40208924    -0.35800
N1315       N  0.26930603  0.08852391  0.39070776    -0.28000
C1316       C  0.26763711  0.09414163  0.37736165    -0.03200
C1317       C  0.26670854  0.10574323  0.38044521     0.05400
C1318       C  0.26786406  0.10651408  0.39627513     0.03500
H1319       H  0.26717296  0.09001758  0.36628059     0.08600
H1320       H  0.26791272  0.11419183  0.40313764     0.07400
N1321       N  0.28065124  0.18287754  0.29529356    -0.27000
N1322       N  0.27514411  0.19266659  0.29433976    -0.34800
C1323       C  0.28125997  0.20008306  0.28608824     0.01400
C1324       C  0.29116263  0.19478888  0.28141693     0.07400
C1325       C  0.29051692  0.18380071  0.28736141    -0.05700
H1326       H  0.27860904  0.20871972  0.28353439     0.08100
H1327       H  0.29681659  0.17711778  0.28630245     0.09300
Cu1328     Cu  0.25948142  0.19576837  0.30387236     0.44200
Cu1329     Cu  0.27392875  0.16948968  0.30829766     0.42000
Cu1330     Cu  0.24524694  0.17568332  0.32669338     0.43900
N1331       N  0.24353994  0.19872870  0.31260705    -0.34400
N1332       N  0.23787207  0.19141654  0.32118737    -0.28600
C1333       C  0.22770654  0.19610694  0.32488862    -0.04700
C1334       C  0.22707184  0.20692745  0.31825040     0.07500
C1335       C  0.23731025  0.20815596  0.31054523     0.01300
H1336       H  0.22138795  0.19201233  0.33202825     0.09000
H1337       H  0.24007005  0.21532864  0.30369633     0.08000
N1338       N  0.25527101  0.16110373  0.33013540    -0.35800
N1339       N  0.26518057  0.15877658  0.32349377    -0.28000
C1340       C  0.26911181  0.14877855  0.32902908    -0.03200
C1341       C  0.26144350  0.14469247  0.33978116     0.05400
C1342       C  0.25278610  0.15270849  0.34011452     0.03500
H1343       H  0.27723492  0.14504395  0.32600229     0.08600
H1344       H  0.24527709  0.15256564  0.34731992     0.07400
N1345       N  0.23602684  0.46935155  0.89675134    -0.27000
N1346       N  0.23802621  0.47134194  0.91143114    -0.34800
C1347       C  0.24032862  0.48240374  0.91352697     0.01400
C1348       C  0.23972920  0.48788866  0.89952464     0.07400
C1349       C  0.23689903  0.47934935  0.88903470    -0.05700
H1350       H  0.24194780  0.48626080  0.92461874     0.08100
H1351       H  0.23562951  0.48032272  0.87679552     0.09300
Cu1352     Cu  0.23637747  0.45942239  0.92849815     0.44200
Cu1353     Cu  0.23220940  0.45266431  0.88953504     0.42000
Cu1354     Cu  0.22510345  0.43204489  0.92175098     0.43900
N1355       N  0.23175999  0.44867436  0.94598117    -0.34400
N1356       N  0.22723981  0.43849905  0.94393939    -0.28600
C1357       C  0.22454653  0.43413274  0.95784069    -0.04700
C1358       C  0.22751128  0.44206843  0.96910284     0.07500
C1359       C  0.23208121  0.45112348  0.96098295     0.01300
H1360       H  0.22044148  0.42598204  0.95951884     0.09000
H1361       H  0.23534396  0.45906221  0.96553630     0.08000
N1362       N  0.22566116  0.42810761  0.89831617    -0.35800
N1363       N  0.22865048  0.43515011  0.88707725    -0.28000
C1364       C  0.22923705  0.42916409  0.87386131    -0.03200
C1365       C  0.22627885  0.41793449  0.87682115     0.05400
C1366       C  0.22405858  0.41761004  0.89241814     0.03500
H1367       H  0.23179169  0.43269429  0.86291649     0.08600
H1368       H  0.22202020  0.41013158  0.89916896     0.07400
N1369       N  0.21634205  0.34375139  0.78459547    -0.27000
N1370       N  0.22422032  0.33664062  0.77955772    -0.34800
C1371       C  0.22021100  0.33082293  0.76749079     0.01400
C1372       C  0.20921849  0.33438770  0.76446682     0.07400
C1373       C  0.20694178  0.34255733  0.77569669    -0.05700
H1374       H  0.22492822  0.32421600  0.76159820     0.08100
H1375       H  0.19912930  0.34730622  0.77717899     0.09300
Cu1376     Cu  0.24001077  0.33437144  0.78935816     0.44200
Cu1377     Cu  0.21983608  0.35441553  0.80337506     0.42000
Cu1378     Cu  0.24881136  0.34938329  0.82190118     0.43900
N1379       N  0.25491564  0.33048706  0.80065267    -0.34400
N1380       N  0.25838266  0.33579405  0.81316409    -0.28600
C1381       C  0.26794690  0.33061516  0.81832068    -0.04700
C1382       C  0.27051493  0.32156797  0.80850492     0.07500
C1383       C  0.26203062  0.32187893  0.79744542     0.01300
H1384       H  0.27239762  0.33297261  0.82872350     0.09000
H1385       H  0.26091631  0.31610914  0.78785537     0.08000
N1386       N  0.23741030  0.36258802  0.82712537    -0.35800
N1387       N  0.22713096  0.36415399  0.82109831    -0.28000
C1388       C  0.22241450  0.37348981  0.82755363    -0.03200
C1389       C  0.23011296  0.37811999  0.83786350     0.05400
C1390       C  0.23949432  0.37100152  0.83727534     0.03500
H1391       H  0.21412704  0.37687534  0.82458839     0.08600
H1392       H  0.24729594  0.37185942  0.84380635     0.07400
N1393       N  0.21585386  0.46773963  0.10944037    -0.27000
N1394       N  0.21277813  0.46991891  0.09512959    -0.34800
C1395       C  0.21008464  0.48096276  0.09372268     0.01400
C1396       C  0.21143011  0.48623782  0.10779529     0.07400
C1397       C  0.21523841  0.47759475  0.11755380    -0.05700
H1398       H  0.20772449  0.48494966  0.08296776     0.08100
H1399       H  0.21737137  0.47842027  0.12959002     0.09300
Cu1400     Cu  0.21336123  0.45850697  0.07717888     0.44200
Cu1401     Cu  0.22072108  0.45109916  0.11601583     0.42000
Cu1402     Cu  0.22569282  0.43176385  0.08210042     0.43900
N1403       N  0.21741560  0.44825497  0.05878569    -0.34400
N1404       N  0.22241987  0.43825839  0.06031438    -0.28600
C1405       C  0.22491658  0.43415415  0.04621901    -0.04700
C1406       C  0.22139483  0.44210321  0.03535187     0.07500
C1407       C  0.21658080  0.45086034  0.04383549     0.01300
H1408       H  0.22934490  0.42622842  0.04407753     0.09000
H1409       H  0.21290854  0.45869014  0.03956259     0.08000
N1410       N  0.22651362  0.42693009  0.10509006    -0.35800
N1411       N  0.22463715  0.43351742  0.11720970    -0.28000
C1412       C  0.22527119  0.42696860  0.12996006    -0.03200
C1413       C  0.22771788  0.41577871  0.12569066     0.05400
C1414       C  0.22838977  0.41618333  0.10980769     0.03500
H1415       H  0.22395267  0.43011897  0.14150548     0.08600
H1416       H  0.22966907  0.40911376  0.10203926     0.07400
N1417       N  0.21143914  0.33763229  0.20997390    -0.27000
N1418       N  0.21643250  0.32755019  0.21067405    -0.34800
C1419       C  0.21012232  0.32046951  0.21920976     0.01400
C1420       C  0.20063188  0.32628065  0.22431372     0.07400
C1421       C  0.20175668  0.33723778  0.21839702    -0.05700
H1422       H  0.21239418  0.31171925  0.22171724     0.08100
H1423       H  0.19590382  0.34426532  0.21984329     0.09300
Cu1424     Cu  0.23167590  0.32350775  0.20040859     0.44200
Cu1425     Cu  0.21835237  0.35073325  0.19652163     0.42000
Cu1426     Cu  0.24584593  0.34333781  0.17667278     0.43900
N1427       N  0.24700923  0.31991710  0.19008573    -0.34400
N1428       N  0.25257106  0.32716250  0.18125823    -0.28600
C1429       C  0.26239152  0.32220309  0.17668241    -0.04700
C1430       C  0.26290956  0.31126278  0.18289026     0.07500
C1431       C  0.25300031  0.31024152  0.19140401     0.01300
H1432       H  0.26868894  0.32626416  0.16945019     0.09000
H1433       H  0.25043284  0.30315802  0.19855973     0.08000
N1434       N  0.23652636  0.35840527  0.17352841    -0.35800
N1435       N  0.22687670  0.36108308  0.18057015    -0.28000
C1436       C  0.22319359  0.37121780  0.17518338    -0.03200
C1437       C  0.23082982  0.37516075  0.16421025     0.05400
C1438       C  0.23914686  0.36675677  0.16352016     0.03500
H1439       H  0.21528602  0.37518313  0.17863839     0.08600
H1440       H  0.24656587  0.36664460  0.15616493     0.07400
N1441       N  0.03969374  0.27406497  0.61023793    -0.27000
N1442       N  0.03753614  0.27138129  0.59579002    -0.34800
C1443       C  0.02629962  0.27005421  0.59384984     0.01400
C1444       C  0.02089659  0.27195530  0.60772369     0.07400
C1445       C  0.02967379  0.27461032  0.61791292    -0.05700
H1446       H  0.02232676  0.26830622  0.58287574     0.08100
H1447       H  0.02882743  0.27678746  0.62993322     0.09300
Cu1448     Cu  0.04954060  0.27066134  0.57859281     0.44200
Cu1449     Cu  0.05654943  0.27667743  0.61758310     0.42000
Cu1450     Cu  0.07802439  0.27789422  0.58513180     0.43900
N1451       N  0.06106651  0.27237778  0.56094390    -0.34400
N1452       N  0.07175571  0.27548622  0.56294560    -0.28600
C1453       C  0.07679828  0.27635764  0.54903343    -0.04700
C1454       C  0.06879848  0.27357963  0.53779754     0.07500
C1455       C  0.05896188  0.27113899  0.54591792     0.01300
H1456       H  0.08560316  0.27871330  0.54729111     0.09000
H1457       H  0.05070152  0.26892293  0.54124977     0.08000
N1458       N  0.08177167  0.27762821  0.60858997    -0.35800
N1459       N  0.07436900  0.27728938  0.62009919    -0.28000
C1460       C  0.08021548  0.27660516  0.63343901    -0.03200
C1461       C  0.09178404  0.27632876  0.63017017     0.05400
C1462       C  0.09239029  0.27707173  0.61432409     0.03500
H1463       H  0.07631807  0.27592396  0.64466181     0.08600
H1464       H  0.10001776  0.27711692  0.60736375     0.07400
N1465       N  0.17158407  0.29695580  0.70775141    -0.27000
N1466       N  0.18185461  0.29243750  0.70650916    -0.34800
C1467       C  0.18938882  0.29892110  0.71405936     0.01400
C1468       C  0.18372662  0.30804309  0.72059741     0.07400
C1469       C  0.17236895  0.30651844  0.71641173    -0.05700
H1470       H  0.19833486  0.29685605  0.71521421     0.08100
H1471       H  0.16524229  0.31191698  0.71942358     0.09300
Cu1472     Cu  0.18550219  0.27704803  0.69621433     0.44200
Cu1473     Cu  0.15741618  0.28919427  0.69734876     0.42000
Cu1474     Cu  0.16330046  0.25988805  0.68212743     0.43900
N1475       N  0.18817311  0.26058420  0.68880413    -0.34400
N1476       N  0.17992084  0.25387215  0.68391335    -0.28600
C1477       C  0.18433463  0.24352272  0.68067401    -0.04700
C1478       C  0.19596992  0.24381835  0.68367631     0.07500
C1479       C  0.19802525  0.25480463  0.68880760     0.01300
H1480       H  0.17944381  0.23639331  0.67636315     0.09000
H1481       H  0.20605686  0.25829254  0.69271199     0.08000
N1482       N  0.14806342  0.26878596  0.67951599    -0.35800
N1483       N  0.14584987  0.27915694  0.68479234    -0.28000
C1484       C  0.13547965  0.28236791  0.67965823    -0.03200
C1485       C  0.13099671  0.27366529  0.67066866     0.05400
C1486       C  0.13924180  0.26522486  0.67091499     0.03500
H1487       H  0.13179309  0.29069846  0.68156360     0.08600
H1488       H  0.13905353  0.25719215  0.66479093     0.07400
N1489       N  0.04015025  0.28219266  0.39755187    -0.27000
N1490       N  0.03710911  0.28163667  0.41216855    -0.34800
C1491       C  0.02577228  0.28259399  0.41327057     0.01400
C1492       C  0.02126502  0.28370529  0.39870952     0.07400
C1493       C  0.03061838  0.28335809  0.38890694    -0.05700
H1494       H  0.02112807  0.28269337  0.42401053     0.08100
H1495       H  0.03054080  0.28441706  0.37655825     0.09300
Cu1496     Cu  0.04800937  0.28010853  0.43069877     0.44200
Cu1497     Cu  0.05739737  0.28240268  0.39107697     0.42000
Cu1498     Cu  0.07718956  0.28237360  0.42501459     0.43900
N1499       N  0.05939743  0.27893805  0.44873581    -0.34400
N1500       N  0.07047361  0.28011441  0.44681903    -0.28600
C1501       C  0.07569647  0.27905615  0.46055353    -0.04700
C1502       C  0.06743756  0.27693670  0.47159583     0.07500
C1503       C  0.05720897  0.27698509  0.46364088     0.01300
H1504       H  0.08480054  0.27952727  0.46230667     0.09000
H1505       H  0.04876137  0.27582568  0.46834543     0.08000
N1506       N  0.08208218  0.28298527  0.40212767    -0.35800
N1507       N  0.07528877  0.28302471  0.38995565    -0.28000
C1508       C  0.08182641  0.28306958  0.37718754    -0.03200
C1509       C  0.09321294  0.28294307  0.38157563     0.05400
C1510       C  0.09297019  0.28289841  0.39744386     0.03500
H1511       H  0.07852157  0.28278126  0.36558851     0.08600
H1512       H  0.10021715  0.28268612  0.40513197     0.07400
N1513       N  0.16739048  0.29454325  0.29048571    -0.27000
N1514       N  0.17487321  0.28706673  0.28527342    -0.34800
C1515       C  0.17996810  0.29125031  0.27273076     0.01400
C1516       C  0.17564381  0.30197325  0.26979789     0.07400
C1517       C  0.16769704  0.30388299  0.28136688    -0.05700
H1518       H  0.18656669  0.28686645  0.26636607     0.08100
H1519       H  0.16242971  0.31136953  0.28287801     0.09300
Cu1520     Cu  0.17858138  0.27163445  0.29540934     0.44200
Cu1521     Cu  0.15708756  0.29069189  0.30939350     0.42000
Cu1522     Cu  0.16316283  0.26211312  0.32742596     0.43900
N1523       N  0.18273122  0.25682141  0.30684170    -0.34400
N1524       N  0.17701070  0.25299432  0.31882124    -0.28600
C1525       C  0.18216236  0.24345998  0.32406912    -0.04700
C1526       C  0.19168513  0.24136875  0.31501716     0.07500
C1527       C  0.19168653  0.24999930  0.30417779     0.01300
H1528       H  0.17950878  0.23873455  0.33412126     0.09000
H1529       H  0.19786805  0.25137505  0.29516159     0.08000
N1530       N  0.14987362  0.27308252  0.33339830    -0.35800
N1531       N  0.14764544  0.28312292  0.32707557    -0.28000
C1532       C  0.13809825  0.28737756  0.33349259    -0.03200
C1533       C  0.13415568  0.27973551  0.34442873     0.05400
C1534       C  0.14186151  0.27078933  0.34399513     0.03500
H1535       H  0.13427252  0.29543716  0.33034229     0.08600
H1536       H  0.14149804  0.26294728  0.35050836     0.07400
C1537       C  0.11312258  0.27619516  0.37727582    -0.21000
C1538       C  0.10355206  0.28214756  0.37181080    -0.09000
C1539       C  0.10415312  0.28740846  0.35731048     0.29800
C1540       C  0.11416365  0.28672041  0.34855851    -0.21000
C1541       C  0.12369049  0.28063886  0.35397054    -0.09000
C1542       C  0.12304924  0.27538020  0.36848492     0.29800
F1543       F  0.13209471  0.26968818  0.37444384    -0.19600
H1544       H  0.11291040  0.27204428  0.38837913     0.18200
H1545       H  0.11440024  0.29083880  0.33743772     0.18200
F1546       F  0.09521278  0.29348116  0.35176304    -0.19600
C1547       C  0.06228605  0.26670612  0.51218219    -0.21000
C1548       C  0.06982677  0.27350978  0.52075664    -0.09000
C1549       C  0.07749159  0.28063476  0.51280935     0.29800
C1550       C  0.07705903  0.28136563  0.49669954    -0.21000
C1551       C  0.06894779  0.27510494  0.48832161    -0.09000
C1552       C  0.06180111  0.26749884  0.49621292     0.29800
F1553       F  0.05429484  0.26080314  0.48850573    -0.19600
H1554       H  0.05654370  0.26084558  0.51786398     0.18200
H1555       H  0.08269739  0.28723906  0.49083587     0.18200
F1556       F  0.08492375  0.28737971  0.52054449    -0.19600
C1557       C  0.12064062  0.26827859  0.64665513    -0.21000
C1558       C  0.12059815  0.27391954  0.66089985    -0.09000
C1559       C  0.11071318  0.27987549  0.66535599     0.29800
C1560       C  0.10121821  0.28035345  0.65554211    -0.21000
C1561       C  0.10148747  0.27509785  0.64102386    -0.09000
C1562       C  0.11126334  0.26889429  0.63678974     0.29800
F1563       F  0.11174286  0.26326555  0.62317695    -0.19600
H1564       H  0.12808754  0.26358983  0.64290805     0.18200
H1565       H  0.09375827  0.28509627  0.65912671     0.18200
F1566       F  0.11016471  0.28512066  0.67923551    -0.19600
C1567       C  0.18838846  0.32689284  0.24796925    -0.21000
C1568       C  0.19174196  0.32136559  0.23436719    -0.09000
C1569       C  0.18795665  0.31018509  0.23160929     0.29800
C1570       C  0.18187796  0.30429819  0.24282702    -0.21000
C1571       C  0.17941705  0.30939721  0.25702583    -0.09000
C1572       C  0.18226044  0.32093618  0.25930376     0.29800
F1573       F  0.18011471  0.32608407  0.27296419    -0.19600
H1574       H  0.19127071  0.33549499  0.25032616     0.18200
H1575       H  0.17960121  0.29548002  0.24071611     0.18200
F1576       F  0.19066289  0.30472245  0.21834288    -0.19600
C1577       C  0.22350149  0.40519969  0.15022916    -0.21000
C1578       C  0.22873408  0.40546226  0.13569372    -0.09000
C1579       C  0.23476160  0.39569968  0.13079822     0.29800
C1580       C  0.23540004  0.38599779  0.14013878    -0.21000
C1581       C  0.23004834  0.38567199  0.15457604    -0.09000
C1582       C  0.22408830  0.39544032  0.15954532     0.29800
F1583       F  0.21902003  0.39571723  0.17354248    -0.19600
H1584       H  0.21879799  0.41251783  0.15436261     0.18200
H1585       H  0.24002870  0.37866038  0.13591725     0.18200
F1586       F  0.24029596  0.39551468  0.11712152    -0.19600
C1587       C  0.19013649  0.32775555  0.75439748    -0.21000
C1588       C  0.20183521  0.32973311  0.75207870    -0.09000
C1589       C  0.20683433  0.32603925  0.73825221     0.29800
C1590       C  0.20058785  0.31964257  0.72772366    -0.21000
C1591       C  0.18917571  0.31678394  0.73055743    -0.09000
C1592       C  0.18381162  0.32132183  0.74369755     0.29800
F1593       F  0.17276034  0.31884812  0.74679105    -0.19600
H1594       H  0.18606954  0.33057813  0.76490371     0.18200
H1595       H  0.20485347  0.31657462  0.71748444     0.18200
F1596       F  0.21791092  0.32834402  0.73503075    -0.19600
C1597       C  0.22578230  0.45198760  0.99435308    -0.21000
C1598       C  0.22579453  0.44169686  0.98605810    -0.09000
C1599       C  0.22448986  0.43140209  0.99423329     0.29800
C1600       C  0.22318345  0.43152733  0.01028913    -0.21000
C1601       C  0.22309172  0.44188076  0.01844744    -0.09000
C1602       C  0.22456407  0.45211154  0.01026369     0.29800
F1603       F  0.22522879  0.46229721  0.01761161    -0.19600
H1604       H  0.22670275  0.46009920  0.98857777     0.18200
H1605       H  0.22213343  0.42352432  0.01633082     0.18200
F1606       F  0.22472497  0.42121751  0.98685819    -0.19600
C1607       C  0.23623572  0.40674164  0.85641401    -0.21000
C1608       C  0.22680617  0.40807892  0.86616706    -0.09000
C1609       C  0.21822630  0.39969161  0.86609880     0.29800
C1610       C  0.21915516  0.39012839  0.85648918    -0.21000
C1611       C  0.22881241  0.38859325  0.84720475    -0.09000
C1612       C  0.23733799  0.39701084  0.84719652     0.29800
F1613       F  0.24668197  0.39587593  0.83814413    -0.19600
H1614       H  0.24294994  0.41307909  0.85630014     0.18200
H1615       H  0.21248477  0.38374531  0.85662104     0.18200
F1616       F  0.20890696  0.40079795  0.87520614    -0.19600
C1617       C  0.22055079  0.22707093  0.31556030    -0.21000
C1618       C  0.21782949  0.21564404  0.31882008    -0.09000
C1619       C  0.20635489  0.21285710  0.32182606     0.29800
C1620       C  0.19786022  0.22130563  0.32105639    -0.21000
C1621       C  0.20063985  0.23258305  0.31707746    -0.09000
C1622       C  0.21211850  0.23540034  0.31459031     0.29800
F1623       F  0.21527371  0.24628586  0.31143405    -0.19600
H1624       H  0.22927851  0.22966494  0.31367471     0.18200
H1625       H  0.18906284  0.21895647  0.32303252     0.18200
F1626       F  0.20323732  0.20195575  0.32486196    -0.19600
C1627       C  0.26699364  0.12426205  0.34422506    -0.21000
C1628       C  0.26274212  0.13462756  0.34994282    -0.09000
C1629       C  0.25980295  0.13536051  0.36554962     0.29800
C1630       C  0.26098208  0.12590993  0.37517590    -0.21000
C1631       C  0.26515809  0.11546176  0.36956947    -0.09000
C1632       C  0.26812106  0.11472054  0.35387248     0.29800
F1633       F  0.27239664  0.10494301  0.34786543    -0.19600
H1634       H  0.26936346  0.12353074  0.33224113     0.18200
H1635       H  0.25859144  0.12684255  0.38710516     0.18200
F1636       F  0.25618843  0.14536369  0.37169630    -0.19600
C1637       C  0.21035180  0.21469454  0.68513511    -0.21000
C1638       C  0.22185324  0.21783108  0.68381859    -0.09000
C1639       C  0.22459612  0.22928017  0.68088606     0.29800
C1640       C  0.21605263  0.23752065  0.68020514    -0.21000
C1641       C  0.20457564  0.23458045  0.68246631    -0.09000
C1642       C  0.20174428  0.22300008  0.68454195     0.29800
F1643       F  0.19079780  0.21976754  0.68696030    -0.19600
H1644       H  0.20807333  0.20590286  0.68740510     0.18200
H1645       H  0.21848306  0.24629611  0.67814818     0.18200
F1646       F  0.23557876  0.23253750  0.67874959    -0.19600
C1647       C  0.28877038  0.08014229  0.51355842    -0.21000
C1648       C  0.28028673  0.08623086  0.52140716    -0.09000
C1649       C  0.27229185  0.09254767  0.51286344     0.29800
C1650       C  0.27256328  0.09231017  0.49672888    -0.21000
C1651       C  0.28077153  0.08576477  0.48892480    -0.09000
C1652       C  0.28907883  0.07993856  0.49754870     0.29800
F1653       F  0.29755243  0.07402461  0.49054255    -0.19600
H1654       H  0.29516702  0.07539883  0.51986720     0.18200
H1655       H  0.26604971  0.09683942  0.49035477     0.18200
F1656       F  0.26382217  0.09835347  0.52003191    -0.19600
C1657       C  0.26135633  0.13707549  0.64610781    -0.21000
C1658       C  0.26688570  0.13724770  0.66041604    -0.09000
C1659       C  0.27332633  0.12766996  0.66489721     0.29800
C1660       C  0.27431590  0.11824530  0.65505618    -0.21000
C1661       C  0.26903162  0.11827370  0.64055974    -0.09000
C1662       C  0.26239946  0.12774110  0.63628455     0.29800
F1663       F  0.25668874  0.12791626  0.62272650    -0.19600
H1664       H  0.25631678  0.14428857  0.64232389     0.18200
H1665       H  0.27939927  0.11100603  0.65865445     0.18200
F1666       F  0.27848362  0.12730127  0.67884600    -0.19600
C1667       C  0.27901612  0.28332296  0.18601029    -0.21000
C1668       C  0.29036520  0.28686085  0.18444950    -0.09000
C1669       C  0.29260334  0.29830843  0.18068101     0.29800
C1670       C  0.28361146  0.30617318  0.17952275    -0.21000
C1671       C  0.27227308  0.30272632  0.18198317    -0.09000
C1672       C  0.27006518  0.29107595  0.18462061     0.29800
F1673       F  0.25925796  0.28708624  0.18587308    -0.19600
H1674       H  0.27704514  0.27447911  0.18845290     0.18200
H1675       H  0.28558167  0.31505272  0.17737011     0.18200
F1676       F  0.30347371  0.30204541  0.17906527    -0.19600
C1677       C  0.31118560  0.20154824  0.24847052    -0.21000
C1678       C  0.31294526  0.21325691  0.25100268    -0.09000
C1679       C  0.30914243  0.21814729  0.26482117     0.29800
C1680       C  0.30279402  0.21173243  0.27519904    -0.21000
C1681       C  0.30012794  0.20030579  0.27209986    -0.09000
C1682       C  0.30477794  0.19507161  0.25896907     0.29800
F1683       F  0.30225187  0.18406584  0.25557527    -0.19600
H1684       H  0.31401798  0.19763956  0.23785587     0.18200
H1685       H  0.29945938  0.21588210  0.28538030     0.18200
F1686       F  0.31110036  0.22931826  0.26795979    -0.19600
C1687       C  0.39233529  0.23743596  0.15534240    -0.21000
C1688       C  0.39247018  0.24246167  0.14067487    -0.09000
C1689       C  0.38293506  0.24886670  0.13598349     0.29800
C1690       C  0.37336847  0.24979998  0.14546376    -0.21000
C1691       C  0.37299945  0.24439278  0.15986393    -0.09000
C1692       C  0.38270189  0.23833432  0.16484205     0.29800
F1693       F  0.38297953  0.23339584  0.17893206    -0.19600
H1694       H  0.39959048  0.23255519  0.15932511     0.18200
H1695       H  0.36612342  0.25460085  0.14130347     0.18200
F1696       F  0.38286095  0.25438989  0.12228532    -0.19600
C1697       C  0.29857479  0.30618420  0.81719939    -0.21000
C1698       C  0.29668087  0.29555330  0.81013363    -0.09000
C1699       C  0.28597444  0.29348847  0.80336121     0.29800
C1700       C  0.27762836  0.30193988  0.80315549    -0.21000
C1701       C  0.27956873  0.31269588  0.80975157    -0.09000
C1702       C  0.29011834  0.31470443  0.81701358     0.29800
F1703       F  0.29244764  0.32499087  0.82340902    -0.19600
H1704       H  0.30671636  0.30801632  0.82251022     0.18200
H1705       H  0.26951605  0.29993501  0.79788910     0.18200
F1706       F  0.28335173  0.28318753  0.79720811    -0.19600
C1707       C  0.30847641  0.19970560  0.74925727    -0.21000
C1708       C  0.30394120  0.20458946  0.73584220    -0.09000
C1709       C  0.30706195  0.21575200  0.73183664     0.29800
C1710       C  0.31380530  0.22222533  0.74168481    -0.21000
C1711       C  0.31752389  0.21777075  0.75578933    -0.09000
C1712       C  0.31522039  0.20627260  0.75925984     0.29800
F1713       F  0.31856920  0.20171917  0.77286119    -0.19600
H1714       H  0.30611625  0.19111228  0.75253565     0.18200
H1715       H  0.31566097  0.23098209  0.73860115     0.18200
F1716       F  0.30315394  0.22059049  0.71867475    -0.19600
C1717       C  0.41833078  0.24079569  0.99785094    -0.21000
C1718       C  0.42600020  0.23427596  0.98908937    -0.09000
C1719       C  0.43279709  0.22612201  0.99661584     0.29800
C1720       C  0.43234899  0.22496178  0.01255174    -0.21000
C1721       C  0.42514586  0.23186061  0.02148728    -0.09000
C1722       C  0.41791195  0.23965665  0.01392062     0.29800
F1723       F  0.41088010  0.24659962  0.02200570    -0.19600
H1724       H  0.41299431  0.24712330  0.99232835     0.18200
H1725       H  0.43778310  0.21864511  0.01791346     0.18200
F1726       F  0.43987049  0.21916411  0.98859646    -0.19600
C1727       C  0.39401849  0.24304278  0.85617296    -0.21000
C1728       C  0.39355495  0.24817939  0.87077171    -0.09000
C1729       C  0.38356599  0.25405156  0.87499472     0.29800
C1730       C  0.37429655  0.25463896  0.86492893    -0.21000
C1731       C  0.37466297  0.24936630  0.85043888    -0.09000
C1732       C  0.38467659  0.24355422  0.84612464     0.29800
F1733       F  0.38559329  0.23858974  0.83209519    -0.19600
H1734       H  0.40157346  0.23847207  0.85257964     0.18200
H1735       H  0.36673957  0.25916123  0.86861322     0.18200
F1736       F  0.38278111  0.25949650  0.88870824    -0.19600
C1737       C  0.27349286  0.00552903  0.39087549    -0.21000
C1738       C  0.28123260  0.99947698  0.40010716    -0.09000
C1739       C  0.28963920  0.00554346  0.40820082     0.29800
C1740       C  0.28977060  0.01741757  0.40795274    -0.21000
C1741       C  0.28149120  0.02356726  0.39976490    -0.09000
C1742       C  0.27356159  0.01751824  0.39073701     0.29800
F1743       F  0.26533989  0.02311518  0.38279076    -0.19600
H1744       H  0.26691632  0.00101163  0.38461367     0.18200
H1745       H  0.29616499  0.02182341  0.41468343     0.18200
F1746       F  0.29753738  0.99999315  0.41681158    -0.19600
C1747       C  0.27197964  0.89701437  0.34768261    -0.21000
C1748       C  0.26615423  0.88715722  0.35244750    -0.09000
C1749       C  0.26091567  0.88719375  0.36702463     0.29800
C1750       C  0.26157443  0.89680572  0.37653071    -0.21000
C1751       C  0.26735212  0.90669021  0.37177906    -0.09000
C1752       C  0.27249797  0.90672028  0.35714159     0.29800
F1753       F  0.27833798  0.91596869  0.35210614    -0.19600
H1754       H  0.27604472  0.89725672  0.33652931     0.18200
H1755       H  0.25749738  0.89649391  0.38767120     0.18200
F1756       F  0.25543659  0.87781887  0.37238817    -0.19600
C1757       C  0.27360117  0.00720854  0.62228263    -0.21000
C1758       C  0.26895132  0.00168591  0.60937500    -0.09000
C1759       C  0.26496589  0.00833251  0.59703989     0.29800
C1760       C  0.26638573  0.02011596  0.59711498    -0.21000
C1761       C  0.27174899  0.02561198  0.60946792    -0.09000
C1762       C  0.27502109  0.01912944  0.62234579     0.29800
F1763       F  0.28033607  0.02417098  0.63441278    -0.19600
H1764       H  0.27675969  0.00224740  0.63187892     0.18200
H1765       H  0.26353916  0.02494862  0.58722178     0.18200
F1766       F  0.25993079  0.00340849  0.58465598    -0.19600
C1767       C  0.28423332  0.94462699  0.51581296    -0.21000
C1768       C  0.27596577  0.93826078  0.52370223    -0.09000
C1769       C  0.26837911  0.93143128  0.51517732     0.29800
C1770       C  0.26870832  0.93155409  0.49905282    -0.21000
C1771       C  0.27653171  0.93851626  0.49124269    -0.09000
C1772       C  0.28454176  0.94477187  0.49980223     0.29800
F1773       F  0.29265240  0.95111889  0.49270727    -0.19600
H1774       H  0.29037670  0.94972592  0.52206569     0.18200
H1775       H  0.26246278  0.92666165  0.49267712     0.18200
F1776       F  0.26017903  0.92524482  0.52231138    -0.19600
C1777       C  0.26443130  0.89908909  0.66718062    -0.21000
C1778       C  0.25858463  0.88928413  0.66219814    -0.09000
C1779       C  0.25358421  0.88939228  0.64748015     0.29800
C1780       C  0.25459199  0.89896449  0.63798520    -0.21000
C1781       C  0.26048943  0.90874340  0.64287442    -0.09000
C1782       C  0.26530147  0.90876364  0.65771525     0.29800
F1783       F  0.27122058  0.91792533  0.66289543    -0.19600
H1784       H  0.26834433  0.89927109  0.67844419     0.18200
H1785       H  0.25074329  0.89868107  0.62668660     0.18200
F1786       F  0.24811011  0.88008561  0.64189781    -0.19600
C1787       C  0.29939117  0.81228858  0.23881803    -0.21000
C1788       C  0.31082241  0.81022965  0.24250863    -0.09000
C1789       C  0.31578432  0.81634016  0.25473368     0.29800
C1790       C  0.30904340  0.82366516  0.26385475    -0.21000
C1791       C  0.29733409  0.82500960  0.26078039    -0.09000
C1792       C  0.29276294  0.81965633  0.24764817     0.29800
F1793       F  0.28173106  0.82127419  0.24350801    -0.19600
H1794       H  0.29544999  0.80788034  0.22924357     0.18200
H1795       H  0.31280568  0.82772501  0.27382154     0.18200
F1796       F  0.32686014  0.81459595  0.25853400    -0.19600
C1797       C  0.38205454  0.77292919  0.13202476    -0.21000
C1798       C  0.39228521  0.77707753  0.13830953    -0.09000
C1799       C  0.39240344  0.78044249  0.15385093     0.29800
C1800       C  0.38249752  0.77963616  0.16279760    -0.21000
C1801       C  0.37233231  0.77532405  0.15653619    -0.09000
C1802       C  0.37220935  0.77200321  0.14099935     0.29800
F1803       F  0.36249067  0.76818719  0.13429673    -0.19600
H1804       H  0.38166729  0.77029509  0.12011873     0.18200
H1805       H  0.38281309  0.78228269  0.17470578     0.18200
F1806       F  0.40196051  0.78482922  0.16032507    -0.19600
C1807       C  0.30423911  0.82888661  0.75075567    -0.21000
C1808       C  0.29994886  0.82363757  0.73742375    -0.09000
C1809       C  0.30346691  0.81249080  0.73387529     0.29800
C1810       C  0.31034521  0.80641380  0.74402439    -0.21000
C1811       C  0.31388915  0.81123809  0.75799492    -0.09000
C1812       C  0.31116275  0.82272174  0.76104527     0.29800
F1813       F  0.31436874  0.82767059  0.77445873    -0.19600
H1814       H  0.30160657  0.83746543  0.75371560     0.18200
H1815       H  0.31254258  0.79769027  0.74119037     0.18200
F1816       F  0.29989955  0.80728404  0.72079245    -0.19600
C1817       C  0.42076131  0.78669492  0.99802704    -0.21000
C1818       C  0.42809013  0.79434262  0.99047935    -0.09000
C1819       C  0.43521810  0.80137497  0.99943084     0.29800
C1820       C  0.43546697  0.80026300  0.01540741    -0.21000
C1821       C  0.42847964  0.79232114  0.02291513    -0.09000
C1822       C  0.42091713  0.78568734  0.01408823     0.29800
F1823       F  0.41411653  0.77779894  0.02084728    -0.19600
H1824       H  0.41518520  0.78117284  0.99147301     0.18200
H1825       H  0.44116508  0.80567393  0.02194967     0.18200
F1826       F  0.44188809  0.80944980  0.99283294    -0.19600
C1827       C  0.38259118  0.77895665  0.87765565    -0.21000
C1828       C  0.39203817  0.78541788  0.87296589    -0.09000
C1829       C  0.39156010  0.79106564  0.85869890     0.29800
C1830       C  0.38188025  0.79010766  0.84932487    -0.21000
C1831       C  0.37251160  0.78345049  0.85389353    -0.09000
C1832       C  0.37295880  0.77794286  0.86828082     0.29800
F1833       F  0.36399033  0.77180389  0.87357515    -0.19600
H1834       H  0.38267803  0.77457434  0.88859879     0.18200
H1835       H  0.38178577  0.79449341  0.83838581     0.18200
F1836       F  0.40028099  0.79779203  0.85397202    -0.19600
C1837       C  0.20869033  0.81099727  0.32238855    -0.21000
C1838       C  0.22029808  0.80880881  0.31991016    -0.09000
C1839       C  0.22421056  0.79750782  0.32044401     0.29800
C1840       C  0.21662448  0.78856543  0.32300132    -0.21000
C1841       C  0.20487665  0.79057349  0.32483414    -0.09000
C1842       C  0.20099318  0.80197908  0.32467585     0.29800
F1843       F  0.18977143  0.80447839  0.32613184    -0.19600
H1844       H  0.20552163  0.81966354  0.32199338     0.18200
H1845       H  0.22006299  0.78002600  0.32346930     0.18200
F1846       F  0.23544799  0.79508055  0.31870639    -0.19600
C1847       C  0.11415116  0.74950749  0.38199884    -0.21000
C1848       C  0.10483114  0.74297468  0.37690518    -0.09000
C1849       C  0.10564754  0.73748486  0.36254652     0.29800
C1850       C  0.11559720  0.73845593  0.35366974    -0.21000
C1851       C  0.12487137  0.74505498  0.35875280    -0.09000
C1852       C  0.12401423  0.75059657  0.37306468     0.29800
F1853       F  0.13284890  0.75674799  0.37875986    -0.19600
H1854       H  0.11382075  0.75384681  0.39296417     0.18200
H1855       H  0.11601847  0.73408070  0.34273327     0.18200
F1856       F  0.09701723  0.73086411  0.35727272    -0.19600
C1857       C  0.19877631  0.79859315  0.68612763    -0.21000
C1858       C  0.20248692  0.78718393  0.68651034    -0.09000
C1859       C  0.21427665  0.78499598  0.68616228     0.29800
C1860       C  0.22210120  0.79395080  0.68667202    -0.21000
C1861       C  0.21845981  0.80535350  0.68732418    -0.09000
C1862       C  0.20667772  0.80762497  0.68651074     0.29800
F1863       F  0.20274993  0.81849820  0.68698132    -0.19600
H1864       H  0.18975974  0.80052663  0.68626040     0.18200
H1865       H  0.23109514  0.79190489  0.68670762     0.18200
F1866       F  0.21831154  0.77416554  0.68533882    -0.19600
C1867       C  0.06013750  0.74420636  0.51960089    -0.21000
C1868       C  0.06899588  0.73829852  0.52688914    -0.09000
C1869       C  0.07840783  0.73466374  0.51816711     0.29800
C1870       C  0.07849506  0.73625637  0.50218387    -0.21000
C1871       C  0.06923511  0.74153186  0.49479399    -0.09000
C1872       C  0.06027843  0.74591923  0.50376821     0.29800
F1873       F  0.05154914  0.75176603  0.49724015    -0.19600
H1874       H  0.05296262  0.74735574  0.52617374     0.18200
H1875       H  0.08549772  0.73284011  0.49552679     0.18200
F1876       F  0.08710304  0.72889443  0.52489789    -0.19600
C1877       C  0.10292160  0.73165821  0.65869252    -0.21000
C1878       C  0.10216655  0.73722675  0.64444131    -0.09000
C1879       C  0.11128976  0.74420047  0.63974833     0.29800
C1880       C  0.12093116  0.74545446  0.64902290    -0.21000
C1881       C  0.12182709  0.73977434  0.66318821    -0.09000
C1882       C  0.11266894  0.73281833  0.66794316     0.29800
F1883       F  0.11298091  0.72729303  0.68162396    -0.19600
H1884       H  0.09603243  0.72622646  0.66256148     0.18200
H1885       H  0.12778818  0.75082789  0.64493502     0.18200
F1886       F  0.11083206  0.75006318  0.62631909    -0.19600
C1887       C  0.27298516  0.72384881  0.19579724    -0.21000
C1888       C  0.27582421  0.71256303  0.19209499    -0.09000
C1889       C  0.28691893  0.71016504  0.18687341     0.29800
C1890       C  0.29514286  0.71888763  0.18622976    -0.21000
C1891       C  0.29238968  0.73008723  0.19073485    -0.09000
C1892       C  0.28107987  0.73251813  0.19501679     0.29800
F1893       F  0.27775943  0.74330974  0.19843006    -0.19600
H1894       H  0.26442284  0.72598016  0.19946923     0.18200
H1895       H  0.30377049  0.71678908  0.18283359     0.18200
F1896       F  0.28998985  0.69932927  0.18329778    -0.19600
C1897       C  0.21034152  0.69806822  0.27383790    -0.21000
C1898       C  0.20421919  0.69329381  0.26156818    -0.09000
C1899       C  0.19225524  0.69425444  0.26158225     0.29800
C1900       C  0.18673929  0.70081186  0.27294327    -0.21000
C1901       C  0.19306824  0.70637799  0.28448012    -0.09000
C1902       C  0.20489510  0.70442881  0.28518396     0.29800
F1903       F  0.21132126  0.70879471  0.29673869    -0.19600
H1904       H  0.21951184  0.69711995  0.27447534     0.18200
H1905       H  0.17760320  0.70200952  0.27224065     0.18200
F1906       F  0.18598143  0.68953399  0.25013843    -0.19600
C1907       C  0.20057854  0.51642752  0.10309020    -0.21000
C1908       C  0.20842041  0.52279277  0.11174670    -0.09000
C1909       C  0.21643331  0.51688247  0.12083205     0.29800
C1910       C  0.21701853  0.50488047  0.12030927    -0.21000
C1911       C  0.20965495  0.49862801  0.11072451    -0.09000
C1912       C  0.20114482  0.50454888  0.10257366     0.29800
F1913       F  0.19344465  0.49886914  0.09380093    -0.19600
H1914       H  0.19412750  0.52069316  0.09628866     0.18200
H1915       H  0.22363648  0.50053457  0.12671197     0.18200
F1916       F  0.22420127  0.52267309  0.12933408    -0.19600
C1917       C  0.22763467  0.62587509  0.13685902    -0.21000
C1918       C  0.22273688  0.61572797  0.14240874    -0.09000
C1919       C  0.21920012  0.61541761  0.15790864     0.29800
C1920       C  0.22066877  0.62497362  0.16747314    -0.21000
C1921       C  0.22574052  0.63501349  0.16189328    -0.09000
C1922       C  0.22910106  0.63537062  0.14637625     0.29800
F1923       F  0.23353999  0.64500753  0.14017499    -0.19600
H1924       H  0.23046987  0.62652331  0.12505903     0.18200
H1925       H  0.21795017  0.62445825  0.17934981     0.18200
F1926       F  0.21411750  0.60601745  0.16383151    -0.19600
C1927       C  0.29212431  0.71330382  0.81977543    -0.21000
C1928       C  0.28167200  0.71494482  0.81215013    -0.09000
C1929       C  0.27940310  0.72567265  0.80558416     0.29800
C1930       C  0.28755197  0.73430237  0.80601904    -0.21000
C1931       C  0.29818589  0.73258856  0.81305041    -0.09000
C1932       C  0.30033563  0.72203776  0.82024160     0.29800
F1933       F  0.31048908  0.71997431  0.82715625    -0.19600
H1934       H  0.29407093  0.70515739  0.82499471     0.18200
H1935       H  0.28544580  0.74241619  0.80083690     0.18200
F1936       F  0.26919124  0.72800137  0.79898367    -0.19600
C1937       C  0.20882116  0.69442995  0.74113438    -0.21000
C1938       C  0.20499407  0.69074363  0.75557574    -0.09000
C1939       C  0.19362229  0.69294441  0.75983114     0.29800
C1940       C  0.18660842  0.69963380  0.75030870    -0.21000
C1941       C  0.19088018  0.70416232  0.73652091    -0.09000
C1942       C  0.20186003  0.70103200  0.73168128     0.29800
F1943       F  0.20605185  0.70479872  0.71805847    -0.19600
H1944       H  0.21745850  0.69264271  0.73745555     0.18200
H1945       H  0.17815993  0.70195967  0.75422954     0.18200
F1946       F  0.18963146  0.68955575  0.77372685    -0.19600
C1947       C  0.24956920  0.50583543  0.90661790    -0.21000
C1948       C  0.24144154  0.50033465  0.89739561    -0.09000
C1949       C  0.23428095  0.50701193  0.88802967     0.29800
C1950       C  0.23473091  0.51899941  0.88889026    -0.21000
C1951       C  0.24228483  0.52442407  0.89911435    -0.09000
C1952       C  0.25003354  0.51769356  0.90746681     0.29800
F1953       F  0.25790167  0.52256144  0.91683459    -0.19600
H1954       H  0.25535410  0.50090054  0.91368928     0.18200
H1955       H  0.22869848  0.52400049  0.88230583     0.18200
F1956       F  0.22626734  0.50200999  0.87903982    -0.19600
C1957       C  0.22884621  0.57165995  0.99978321    -0.21000
C1958       C  0.22927980  0.58203965  0.99168756    -0.09000
C1959       C  0.22711588  0.59220273  0.99989735     0.29800
C1960       C  0.22438971  0.59183515  0.01563288    -0.21000
C1961       C  0.22371602  0.58137822  0.02349404    -0.09000
C1962       C  0.22619414  0.57130478  0.01539067     0.29800
F1963       F  0.22636951  0.56103497  0.02256147    -0.19600
H1964       H  0.23044911  0.56363717  0.99409824     0.18200
H1965       H  0.22262958  0.59973435  0.02161355     0.18200
F1966       F  0.22773048  0.60250979  0.99289496    -0.19600
C1967       C  0.24003124  0.62757474  0.87768618    -0.21000
C1968       C  0.23473956  0.61752591  0.87254140    -0.09000
C1969       C  0.23059095  0.61712739  0.85737023     0.29800
C1970       C  0.23155294  0.62666232  0.84774199    -0.21000
C1971       C  0.23683754  0.63672657  0.85289713    -0.09000
C1972       C  0.24117015  0.63703297  0.86799415     0.29800
F1973       F  0.24621000  0.64656272  0.87364023    -0.19600
H1974       H  0.24338723  0.62810549  0.88924377     0.18200
H1975       H  0.22821204  0.62612454  0.83618153     0.18200
F1976       F  0.22528467  0.60767058  0.85194421    -0.19600
C1977       C  0.50583888  0.78396385  0.12077074    -0.21000
C1978       C  0.51032120  0.77397316  0.11422353    -0.09000
C1979       C  0.50277704  0.76541789  0.10920872     0.29800
C1980       C  0.49099479  0.76711382  0.10993246    -0.21000
C1981       C  0.48653595  0.77738498  0.11553570    -0.09000
C1982       C  0.49401045  0.78573179  0.12124877     0.29800
F1983       F  0.48989022  0.79586938  0.12632506    -0.19600
H1984       H  0.51149168  0.79072294  0.12449320     0.18200
H1985       H  0.48535041  0.76067045  0.10527256     0.18200
F1986       F  0.50682534  0.75560321  0.10299102    -0.19600
C1987       C  0.61508636  0.77960045  0.15905656    -0.21000
C1988       C  0.62546114  0.77642711  0.15225799    -0.09000
C1989       C  0.62569748  0.77435843  0.13633735     0.29800
C1990       C  0.61574019  0.77522930  0.12754143    -0.21000
C1991       C  0.60523629  0.77813139  0.13432212    -0.09000
C1992       C  0.60506321  0.78036890  0.15027682     0.29800
F1993       F  0.59529396  0.78344554  0.15747174    -0.19600
H1994       H  0.61468191  0.78126199  0.17128667     0.18200
H1995       H  0.61630044  0.77345194  0.11536857     0.18200
F1996       F  0.63561585  0.77171980  0.12915062    -0.19600
C1997       C  0.50328863  0.80925978  0.90069402    -0.21000
C1998       C  0.50920013  0.80021118  0.89377011    -0.09000
C1999       C  0.50292407  0.79160210  0.88628677     0.29800
C2000       C  0.49094671  0.79166518  0.88684893    -0.21000
C2001       C  0.48512842  0.80026544  0.89491175    -0.09000
C2002       C  0.49140960  0.80932538  0.90124675     0.29800
F2003       F  0.48605891  0.81805776  0.90852226    -0.19600
H2004       H  0.50791340  0.81609146  0.90629877     0.18200
H2005       H  0.48627264  0.78458239  0.88193629     0.18200
F2006       F  0.50831777  0.78263265  0.87964945    -0.19600
C2007       C  0.57476691  0.78124725  0.99346360    -0.21000
C2008       C  0.56436562  0.78297217  0.98577775    -0.09000
C2009       C  0.55421697  0.78256658  0.99439555     0.29800
C2010       C  0.55455120  0.78093390  0.01029228    -0.21000
C2011       C  0.56495038  0.77950996  0.01809108    -0.09000
C2012       C  0.57509120  0.77953780  0.00942543     0.29800
F2013       F  0.58531646  0.77769308  0.01624270    -0.19600
H2014       H  0.58271043  0.78138207  0.98715038     0.18200
H2015       H  0.54656309  0.78089724  0.01649085     0.18200
F2016       F  0.54388347  0.78345612  0.98751132    -0.19600
C2017       C  0.60068562  0.78122193  0.85318753    -0.21000
C2018       C  0.60036199  0.77650237  0.86803462    -0.09000
C2019       C  0.60974215  0.76995783  0.87300798     0.29800
C2020       C  0.61933753  0.76864161  0.86363856    -0.21000
C2021       C  0.61987207  0.77374462  0.84905459    -0.09000
C2022       C  0.61030700  0.77988568  0.84378580     0.29800
F2023       F  0.61013849  0.78448547  0.82948626    -0.19600
H2024       H  0.59357260  0.78618411  0.84892736     0.18200
H2025       H  0.62647536  0.76377027  0.86801067     0.18200
F2026       F  0.60965102  0.76465139  0.88685424    -0.19600
C2027       C  0.70285333  0.80616334  0.26298038    -0.21000
C2028       C  0.70149739  0.81804776  0.26324370    -0.09000
C2029       C  0.69335516  0.82303351  0.25341880     0.29800
C2030       C  0.68722031  0.81620404  0.24294282    -0.21000
C2031       C  0.68918229  0.80437139  0.24212124    -0.09000
C2032       C  0.69684572  0.79941652  0.25262484     0.29800
F2033       F  0.69866669  0.78798762  0.25287514    -0.19600
H2034       H  0.70880687  0.80202047  0.27068899     0.18200
H2035       H  0.68136688  0.82022648  0.23498590     0.18200
F2036       F  0.69184626  0.83450202  0.25325379    -0.19600
C2037       C  0.73435149  0.88423599  0.36460293    -0.21000
C2038       C  0.72929519  0.88406825  0.34996153    -0.09000
C2039       C  0.72281411  0.89355046  0.34526478     0.29800
C2040       C  0.72150219  0.90295732  0.35503351    -0.21000
C2041       C  0.72650466  0.90307329  0.36970696    -0.09000
C2042       C  0.73295923  0.89357083  0.37440617     0.29800
F2043       F  0.73823325  0.89337972  0.38828304    -0.19600
H2044       H  0.73935876  0.87706113  0.36858680     0.18200
H2045       H  0.71647098  0.91014086  0.35113131     0.18200
F2046       F  0.71801300  0.89391860  0.33109384    -0.19600
C2047       C  0.71727254  0.92815942  0.51075728    -0.21000
C2048       C  0.70972003  0.93540715  0.51857859    -0.09000
C2049       C  0.70255880  0.94261377  0.50996702     0.29800
C2050       C  0.70350812  0.94306626  0.49402346    -0.21000
C2051       C  0.71150032  0.93632268  0.48620558    -0.09000
C2052       C  0.71820057  0.92859508  0.49471314     0.29800
F2053       F  0.72609985  0.92194697  0.48771216    -0.19600
H2054       H  0.72288894  0.92251438  0.51712558     0.18200
H2055       H  0.69793744  0.94887743  0.48773317     0.18200
F2056       F  0.69463044  0.94927575  0.51691316    -0.19600
C2057       C  0.69109830  0.80746184  0.73743371    -0.21000
C2058       C  0.69328589  0.81914876  0.73919296    -0.09000
C2059       C  0.68844920  0.82496350  0.75177949     0.29800
C2060       C  0.68248038  0.81883516  0.76312864    -0.21000
C2061       C  0.68132210  0.80693357  0.76193688    -0.09000
C2062       C  0.68522819  0.80141051  0.74865038     0.29800
F2063       F  0.68388718  0.78998594  0.74689472    -0.19600
H2064       H  0.69445338  0.80283835  0.72764744     0.18200
H2065       H  0.67950891  0.82322703  0.77332166     0.18200
F2066       F  0.69030820  0.83628550  0.75379688    -0.19600
C2067       C  0.72033350  0.89213973  0.66030059    -0.21000
C2068       C  0.72723685  0.88298644  0.65551574    -0.09000
C2069       C  0.73253283  0.88364794  0.64100902     0.29800
C2070       C  0.73090784  0.89319806  0.63162413    -0.21000
C2071       C  0.72409686  0.90236720  0.63646753    -0.09000
C2072       C  0.71881494  0.90175928  0.65094614     0.29800
F2073       F  0.71184685  0.91024920  0.65583902    -0.19600
H2074       H  0.71612763  0.89189654  0.67136005     0.18200
H2075       H  0.73503985  0.89343079  0.62050534     0.18200
F2076       F  0.73898830  0.87494171  0.63557331    -0.19600
C2077       C  0.99350094  0.71991934  0.41089931    -0.21000
C2078       C  0.98689535  0.72732819  0.40184071    -0.09000
C2079       C  0.99256821  0.73508138  0.39209113     0.29800
C2080       C  0.00455048  0.73586198  0.39232685    -0.21000
C2081       C  0.01099036  0.72901494  0.40234750    -0.09000
C2082       C  0.00534570  0.72078095  0.41125540     0.29800
F2083       F  0.01128267  0.71377809  0.42076363    -0.19600
H2084       H  0.98947361  0.71362467  0.41819256     0.18200
H2085       H  0.00872984  0.74232040  0.38545112     0.18200
F2086       F  0.98658069  0.74245298  0.38320280    -0.19600
C2087       C  0.78482546  0.78681804  0.31733649    -0.21000
C2088       C  0.79611039  0.78958353  0.32104030    -0.09000
C2089       C  0.79865212  0.80078051  0.32579611     0.29800
C2090       C  0.79014576  0.80923643  0.32549501    -0.21000
C2091       C  0.77904444  0.80656555  0.32058477    -0.09000
C2092       C  0.77636489  0.79513588  0.31725892     0.29800
F2093       F  0.76555375  0.79197000  0.31373734    -0.19600
H2094       H  0.78257024  0.77817359  0.31414803     0.18200
H2095       H  0.79237233  0.81795596  0.32831301     0.18200
F2096       F  0.80945407  0.80371874  0.32968470    -0.19600
C2097       C  0.88326639  0.74280767  0.37761370    -0.21000
C2098       C  0.89334136  0.73785410  0.37194343    -0.09000
C2099       C  0.89354696  0.73420527  0.35650045     0.29800
C2100       C  0.88391759  0.73557812  0.34708583    -0.21000
C2101       C  0.87392922  0.74069094  0.35277254    -0.09000
C2102       C  0.87370000  0.74421267  0.36822674     0.29800
F2103       F  0.86413002  0.74874405  0.37448681    -0.19600
H2104       H  0.88275630  0.74572220  0.38938706     0.18200
H2105       H  0.88433589  0.73275387  0.33525604     0.18200
F2106       F  0.90290609  0.72907136  0.35052812    -0.19600
C2107       C  0.99125913  0.71294273  0.60901010    -0.21000
C2108       C  0.98498168  0.72178305  0.61586881    -0.09000
C2109       C  0.99088764  0.73026930  0.62412737     0.29800
C2110       C  0.00287231  0.73026556  0.62451278    -0.21000
C2111       C  0.00908514  0.72186996  0.61660426    -0.09000
C2112       C  0.00314572  0.71297448  0.60932613     0.29800
F2113       F  0.00886343  0.70450193  0.60199751    -0.19600
H2114       H  0.98694926  0.70617185  0.60285094     0.18200
H2115       H  0.00728834  0.73725025  0.63007173     0.18200
F2116       F  0.98517665  0.73905925  0.63071222    -0.19600
C2117       C  0.91952987  0.73264927  0.51509321    -0.21000
C2118       C  0.92545110  0.72403927  0.52302142    -0.09000
C2119       C  0.93075348  0.71532655  0.51449660     0.29800
C2120       C  0.93058047  0.71555264  0.49845136    -0.21000
C2121       C  0.92508985  0.72440164  0.49049379    -0.09000
C2122       C  0.91936347  0.73287110  0.49896377     0.29800
F2123       F  0.91422706  0.74173819  0.49172925    -0.19600
H2124       H  0.91543305  0.73948200  0.52136809     0.18200
H2125       H  0.93488483  0.70882884  0.49221254     0.18200
F2126       F  0.93609121  0.70652927  0.52163002    -0.19600
C2127       C  0.79721660  0.80315981  0.69308103    -0.21000
C2128       C  0.79556571  0.79142527  0.69538406    -0.09000
C2129       C  0.78440824  0.78711462  0.69567292     0.29800
C2130       C  0.77509047  0.79442239  0.69412398    -0.21000
C2131       C  0.77661694  0.80624025  0.69237938    -0.09000
C2132       C  0.78782999  0.81055444  0.69171059     0.29800
F2133       F  0.78975574  0.82192460  0.69053717    -0.19600
H2134       H  0.80575261  0.80664801  0.69297196     0.18200
H2135       H  0.76662907  0.79077379  0.69437454     0.18200
F2136       F  0.78249908  0.77576824  0.69737938    -0.19600
C2137       C  0.88262219  0.73704956  0.66512302    -0.21000
C2138       C  0.87301587  0.74301290  0.65974735    -0.09000
C2139       C  0.87321018  0.74734751  0.64466387     0.29800
C2140       C  0.88277577  0.74574633  0.63527343    -0.21000
C2141       C  0.89245063  0.73990232  0.64067223    -0.09000
C2142       C  0.89226925  0.73557527  0.65578550     0.29800
F2143       F  0.90124485  0.72962038  0.66145067    -0.19600
H2144       H  0.88272356  0.73361224  0.67666269     0.18200
H2145       H  0.88261185  0.74917150  0.62373292     0.18200
F2146       F  0.86402524  0.75284175  0.63875741    -0.19600
C2147       C  0.72832383  0.72832279  0.17219083    -0.21000
C2148       C  0.72612010  0.71656196  0.17257787    -0.09000
C2149       C  0.71471603  0.71280918  0.17187213     0.29800
C2150       C  0.70575793  0.72076198  0.17192490    -0.21000
C2151       C  0.70806828  0.73249165  0.17279009    -0.09000
C2152       C  0.71944492  0.73619838  0.17232773     0.29800
F2153       F  0.72201585  0.74748544  0.17238898    -0.19600
H2154       H  0.73698716  0.73148790  0.17221372     0.18200
H2155       H  0.69704492  0.71774150  0.17226643     0.18200
F2156       F  0.71217071  0.70153246  0.17224507    -0.19600
C2157       C  0.81213789  0.69978713  0.24119935    -0.21000
C2158       C  0.80730730  0.70560794  0.22865332    -0.09000
C2159       C  0.80959477  0.71730172  0.22687330     0.29800
C2160       C  0.81558344  0.72324024  0.23814250    -0.21000
C2161       C  0.81952170  0.71769650  0.25139875    -0.09000
C2162       C  0.81823965  0.70578431  0.25253707     0.29800
F2163       F  0.82201764  0.70011147  0.26513459    -0.19600
H2164       H  0.81056354  0.69075774  0.24274529     0.18200
H2165       H  0.81674000  0.73235203  0.23678952     0.18200
F2166       F  0.80572188  0.72311591  0.21443714    -0.19600
C2167       C  0.78061774  0.61670915  0.15047863    -0.21000
C2168       C  0.77554225  0.61607852  0.13587649    -0.09000
C2169       C  0.76875856  0.62522328  0.13081122     0.29800
C2170       C  0.76732560  0.63487725  0.13999783    -0.21000
C2171       C  0.77267027  0.63571612  0.15440001    -0.09000
C2172       C  0.77928268  0.62647048  0.15964156     0.29800
F2173       F  0.78428418  0.62675034  0.17369615    -0.19600
H2174       H  0.78578774  0.60973168  0.15467149     0.18200
H2175       H  0.76216855  0.64180236  0.13564550     0.18200
F2176       F  0.76326818  0.62476292  0.11709721    -0.19600
C2177       C  0.77370721  0.58830891  0.99387967    -0.21000
C2178       C  0.77437114  0.57788798  0.98593381    -0.09000
C2179       C  0.77707719  0.56796940  0.99421595     0.29800
C2180       C  0.77861616  0.56839699  0.01008221    -0.21000
C2181       C  0.77736370  0.57866258  0.01829667    -0.09000
C2182       C  0.77511509  0.58872392  0.00992037     0.29800
F2183       F  0.77386232  0.59889384  0.01713420    -0.19600
H2184       H  0.77169769  0.59607671  0.98774909     0.18200
H2185       H  0.78075564  0.56054269  0.01587023     0.18200
F2186       F  0.77842524  0.55779741  0.98700020    -0.19600
C2187       C  0.70988614  0.71187075  0.82676777    -0.21000
C2188       C  0.72131279  0.71547839  0.82733839    -0.09000
C2189       C  0.72358549  0.72725750  0.82830315     0.29800
C2190       C  0.71473708  0.73518219  0.82751692    -0.21000
C2191       C  0.70338163  0.73163791  0.82608642    -0.09000
C2192       C  0.70096372  0.71987953  0.82618886     0.29800
F2193       F  0.69008084  0.71613672  0.82474088    -0.19600
H2194       H  0.70788059  0.70286898  0.82608094     0.18200
H2195       H  0.71680050  0.74418744  0.82785570     0.18200
F2196       F  0.73438250  0.73119322  0.83000377    -0.19600
C2197       C  0.80949960  0.69876896  0.76710274    -0.21000
C2198       C  0.80493137  0.70414420  0.78015985    -0.09000
C2199       C  0.80763026  0.71561511  0.78298865     0.29800
C2200       C  0.81384409  0.72186658  0.77227726    -0.21000
C2201       C  0.81750699  0.71686715  0.75847398    -0.09000
C2202       C  0.81576416  0.70508768  0.75626664     0.29800
F2203       F  0.81923462  0.69990998  0.74313501    -0.19600
H2204       H  0.80753530  0.68990980  0.76475043     0.18200
H2205       H  0.81536161  0.73082876  0.77450396     0.18200
F2206       F  0.80383613  0.72093207  0.79587038    -0.19600
C2207       C  0.77706684  0.63260650  0.86111991    -0.21000
C2208       C  0.76802724  0.63404932  0.85074392    -0.09000
C2209       C  0.76013960  0.62514689  0.84881252     0.29800
C2210       C  0.76116509  0.61507904  0.85741087    -0.21000
C2211       C  0.76989365  0.61385295  0.86835007    -0.09000
C2212       C  0.77792822  0.62268388  0.87000193     0.29800
F2213       F  0.78667186  0.62169443  0.88012476    -0.19600
H2214       H  0.78328545  0.63933223  0.86268153     0.18200
H2215       H  0.75491029  0.60838642  0.85587885     0.18200
F2216       F  0.75152328  0.62614971  0.83849635    -0.19600
C2217       C  0.99073630  0.28014103  0.38488369    -0.21000
C2218       C  0.98505892  0.28759263  0.39499856    -0.09000
C2219       C  0.99159098  0.29490692  0.40431199     0.29800
C2220       C  0.00342664  0.29403711  0.40456280    -0.21000
C2221       C  0.00909477  0.28599589  0.39542326    -0.09000
C2222       C  0.00271601  0.27933457  0.38507356     0.29800
F2223       F  0.00794984  0.27142695  0.37614191    -0.19600
H2224       H  0.98589393  0.27442983  0.37759987     0.18200
H2225       H  0.00818547  0.29938386  0.41243890     0.18200
F2226       F  0.98651237  0.30266714  0.41364547    -0.19600
C2227       C  0.88188497  0.27825273  0.34166228    -0.21000
C2228       C  0.87243715  0.27193494  0.34682591    -0.09000
C2229       C  0.87303170  0.26672579  0.36139059     0.29800
C2230       C  0.88278776  0.26783499  0.37044557    -0.21000
C2231       C  0.89218776  0.27421254  0.36538221    -0.09000
C2232       C  0.89167915  0.27937483  0.35079380     0.29800
F2233       F  0.90040699  0.28588897  0.34557967    -0.19600
H2234       H  0.88169618  0.28237999  0.33054852     0.18200
H2235       H  0.88291144  0.26374060  0.38158262     0.18200
F2236       F  0.86404253  0.26095611  0.36732138    -0.19600
C2237       C  0.98963760  0.26607441  0.60099071    -0.21000
C2238       C  0.98437395  0.27463636  0.60971346    -0.09000
C2239       C  0.99111075  0.28136158  0.61955351     0.29800
C2240       C  0.00303927  0.28003285  0.61970125    -0.21000
C2241       C  0.00834156  0.27197902  0.61006435    -0.09000
C2242       C  0.00143351  0.26466666  0.60123332     0.29800
F2243       F  0.00609094  0.25630205  0.59246530    -0.19600
H2244       H  0.98459670  0.26067026  0.59351754     0.18200
H2245       H  0.00815397  0.28575246  0.62662170     0.18200
F2246       F  0.98628759  0.28978601  0.62803343    -0.19600
C2247       C  0.91537903  0.28497373  0.50965792    -0.21000
C2248       C  0.92471623  0.28011297  0.51744787    -0.09000
C2249       C  0.93337233  0.27488454  0.50872784     0.29800
C2250       C  0.93309270  0.27523544  0.49274030    -0.21000
C2251       C  0.92412812  0.28059348  0.48492963    -0.09000
C2252       C  0.91505212  0.28519505  0.49348619     0.29800
F2253       F  0.90624464  0.29046188  0.48629076    -0.19600
H2254       H  0.90856401  0.28899021  0.51606413     0.18200
H2255       H  0.94002288  0.27135136  0.48640744     0.18200
F2256       F  0.94214914  0.26932799  0.51557413    -0.19600
C2257       C  0.88218286  0.28200508  0.66251174    -0.21000
C2258       C  0.87191490  0.27748244  0.65689483    -0.09000
C2259       C  0.87110541  0.27478497  0.64119944     0.29800
C2260       C  0.88046316  0.27630173  0.63145935    -0.21000
C2261       C  0.89091093  0.28047000  0.63709034    -0.09000
C2262       C  0.89162011  0.28342437  0.65278936     0.29800
F2263       F  0.90133809  0.28781313  0.65879264    -0.19600
H2264       H  0.88298680  0.28421400  0.67455036     0.18200
H2265       H  0.87952632  0.27397081  0.61949813     0.18200
F2266       F  0.86118638  0.27086458  0.63516763    -0.19600
C2267       C  0.81076435  0.31939716  0.24124078    -0.21000
C2268       C  0.79915034  0.32220482  0.24163569    -0.09000
C2269       C  0.79283559  0.31993697  0.25495625     0.29800
C2270       C  0.79780876  0.31412151  0.26720351    -0.21000
C2271       C  0.80916259  0.31037523  0.26640390    -0.09000
C2272       C  0.81579279  0.31351949  0.25356900     0.29800
F2273       F  0.82679748  0.31011373  0.25230720    -0.19600
H2274       H  0.81571676  0.32102611  0.23096837     0.18200
H2275       H  0.79258074  0.31210803  0.27709140     0.18200
F2276       F  0.78164314  0.32280215  0.25575519    -0.19600
C2277       C  0.76095408  0.51684225  0.10435555    -0.21000
C2278       C  0.76916164  0.52244363  0.11329473    -0.09000
C2279       C  0.77599697  0.51598701  0.12334735     0.29800
C2280       C  0.77534367  0.50399213  0.12318787    -0.21000
C2281       C  0.76785393  0.49841476  0.11304480    -0.09000
C2282       C  0.76023826  0.50500084  0.10426458     0.29800
F2283       F  0.75242380  0.49997253  0.09496296    -0.19600
H2284       H  0.75542867  0.52165419  0.09676660     0.18200
H2285       H  0.78124700  0.49908572  0.13010809     0.18200
F2286       F  0.78397711  0.52116903  0.13220529    -0.19600
C2287       C  0.76088713  0.38460361  0.14048936    -0.21000
C2288       C  0.76656994  0.38397789  0.15465467    -0.09000
C2289       C  0.77266006  0.39359194  0.15984141     0.29800
C2290       C  0.77318091  0.40349156  0.15082974    -0.21000
C2291       C  0.76770933  0.40398130  0.13647960    -0.09000
C2292       C  0.76140134  0.39444282  0.13151468     0.29800
F2293       F  0.75546612  0.39462881  0.11813730    -0.19600
H2294       H  0.75610541  0.37739147  0.13617540     0.18200
H2295       H  0.77802131  0.41071576  0.15499040     0.18200
F2296       F  0.77791834  0.39355373  0.17372483    -0.19600
C2297       C  0.80657753  0.30414475  0.78017065    -0.21000
C2298       C  0.80230993  0.31494905  0.77630432    -0.09000
C2299       C  0.80520581  0.31967443  0.76194834     0.29800
C2300       C  0.81157061  0.31325711  0.75129317    -0.21000
C2301       C  0.81505484  0.30208289  0.75484541    -0.09000
C2302       C  0.81288836  0.29779180  0.76963112     0.29800
F2303       F  0.81660010  0.28726456  0.77376063    -0.19600
H2304       H  0.80464064  0.30040345  0.79124920     0.18200
H2305       H  0.81313915  0.31672508  0.73995537     0.18200
F2306       F  0.80111019  0.33003526  0.75774065    -0.19600
C2307       C  0.76503811  0.51501429  0.88390306    -0.21000
C2308       C  0.75722869  0.52051319  0.89370636    -0.09000
C2309       C  0.74941375  0.51380719  0.90196183     0.29800
C2310       C  0.75019797  0.50193745  0.90171257    -0.21000
C2311       C  0.75868315  0.49640909  0.89312318    -0.09000
C2312       C  0.76576413  0.50301344  0.88357249     0.29800
F2313       F  0.77400035  0.49796558  0.87500816    -0.19600
H2314       H  0.77109575  0.51998821  0.87734182     0.18200
H2315       H  0.74445386  0.49703750  0.90887506     0.18200
F2316       F  0.74126307  0.51874001  0.91081210    -0.19600
C2317       C  0.75909615  0.44686864  0.99479181    -0.21000
C2318       C  0.76508626  0.43832678  0.98685452    -0.09000
C2319       C  0.77071815  0.42982268  0.99542543     0.29800
C2320       C  0.77070494  0.43025091  0.01157587    -0.21000
C2321       C  0.76518203  0.43919006  0.01937291    -0.09000
C2322       C  0.75915057  0.44734061  0.01078247     0.29800
F2323       F  0.75319060  0.45577729  0.01781175    -0.19600
H2324       H  0.75436796  0.45332616  0.98861710     0.18200
H2325       H  0.77539252  0.42386715  0.01795437     0.18200
F2326       F  0.77669930  0.42145598  0.98829420    -0.19600
C2327       C  0.76054178  0.39219918  0.87486028    -0.21000
C2328       C  0.76554488  0.40213768  0.86883841    -0.09000
C2329       C  0.76931529  0.40197686  0.85345853     0.29800
C2330       C  0.76813192  0.39207353  0.84447993    -0.21000
C2331       C  0.76303234  0.38219151  0.85053479    -0.09000
C2332       C  0.75926502  0.38238208  0.86588396     0.29800
F2333       F  0.75471572  0.37294750  0.87248925    -0.19600
H2334       H  0.75751908  0.39199156  0.88659945     0.18200
H2335       H  0.77116049  0.39215171  0.83273213     0.18200
F2336       F  0.77445244  0.41123353  0.84719678    -0.19600
C2337       C  0.76726508  0.22886333  0.33152636    -0.21000
C2338       C  0.77003020  0.21729561  0.32961491    -0.09000
C2339       C  0.78157528  0.21421441  0.32812711     0.29800
C2340       C  0.79006171  0.22263272  0.32787460    -0.21000
C2341       C  0.78720281  0.23424079  0.32904982    -0.09000
C2342       C  0.77572180  0.23724370  0.33134791     0.29800
F2343       F  0.77263883  0.24828584  0.33348405    -0.19600
H2344       H  0.75847742  0.23146167  0.33304988     0.18200
H2345       H  0.79883511  0.22008718  0.32606643     0.18200
F2346       F  0.78463191  0.20317279  0.32597603    -0.19600
C2347       C  0.71833698  0.00197949  0.38332020    -0.21000
C2348       C  0.71017652  0.99612621  0.39214743    -0.09000
C2349       C  0.70153351  0.00243074  0.39941440     0.29800
C2350       C  0.70179258  0.01430511  0.39932654    -0.21000
C2351       C  0.71057481  0.02023787  0.39186965    -0.09000
C2352       C  0.71853254  0.01399707  0.38312187     0.29800
F2353       F  0.72701883  0.01942519  0.37548727    -0.19600
H2354       H  0.72501660  0.99729496  0.37749829     0.18200
H2355       H  0.69533339  0.01888958  0.40572407     0.18200
F2356       F  0.69305507  0.99709959  0.40721449    -0.19600
C2357       C  0.73486897  0.13254959  0.36375545    -0.21000
C2358       C  0.72999150  0.13276247  0.34901489    -0.09000
C2359       C  0.72420628  0.12298026  0.34376203     0.29800
C2360       C  0.72323639  0.11332280  0.35320213    -0.21000
C2361       C  0.72787248  0.11325582  0.36810849    -0.09000
C2362       C  0.73381789  0.12297891  0.37321119     0.29800
F2363       F  0.73881964  0.12323871  0.38726336    -0.19600
H2364       H  0.73935627  0.13991645  0.36818069     0.18200
H2365       H  0.71864197  0.10596955  0.34893986     0.18200
F2366       F  0.71962221  0.12264902  0.32945415    -0.19600
C2367       C  0.77907267  0.21790433  0.70053187    -0.21000
C2368       C  0.78150254  0.20713642  0.69428910    -0.09000
C2369       C  0.79231969  0.20530233  0.68769300     0.29800
C2370       C  0.80067928  0.21391564  0.68827483    -0.21000
C2371       C  0.79835633  0.22444442  0.69539743    -0.09000
C2372       C  0.78730523  0.22644364  0.70103946     0.29800
F2373       F  0.78432838  0.23673511  0.70693401    -0.19600
H2374       H  0.77071892  0.21976704  0.70515649     0.18200
H2375       H  0.80907777  0.21220819  0.68367630     0.18200
F2376       F  0.79501024  0.19506898  0.68138797    -0.19600
C2377       C  0.71669226  0.01389719  0.61728244    -0.21000
C2378       C  0.70776073  0.01956987  0.60967072    -0.09000
C2379       C  0.69904421  0.01303198  0.60291778     0.29800
C2380       C  0.69968340  0.00114677  0.60284658    -0.21000
C2381       C  0.70896543  0.99545449  0.60954387    -0.09000
C2382       C  0.71733336  0.00191191  0.61718520     0.29800
F2383       F  0.72657756  0.99672381  0.62340996    -0.19600
H2384       H  0.72355168  0.01874447  0.62244508     0.18200
H2385       H  0.69304952  0.99636316  0.59706373     0.18200
F2386       F  0.69002524  0.01813982  0.59597665    -0.19600
C2387       C  0.71989418  0.08616655  0.51015842    -0.21000
C2388       C  0.71177564  0.07944414  0.51785401    -0.09000
C2389       C  0.70379611  0.07329290  0.50906156     0.29800
C2390       C  0.70435936  0.07336406  0.49304834    -0.21000
C2391       C  0.71278283  0.07962835  0.48533076    -0.09000
C2392       C  0.72042076  0.08627107  0.49403273     0.29800
F2393       F  0.72878678  0.09234353  0.48706385    -0.19600
H2394       H  0.72613141  0.09098293  0.51661248     0.18200
H2395       H  0.69818628  0.06841381  0.48665930     0.18200
F2396       F  0.69535472  0.06722439  0.51587327    -0.19600
C2397       C  0.72435261  0.11117699  0.65156980    -0.21000
C2398       C  0.72803755  0.11161706  0.63619558    -0.09000
C2399       C  0.73385733  0.12146948  0.63118954     0.29800
C2400       C  0.73576124  0.13060409  0.64125562    -0.21000
C2401       C  0.73185099  0.13025464  0.65649895    -0.09000
C2402       C  0.72617385  0.12037477  0.66159660     0.29800
F2403       F  0.72259954  0.11945466  0.67636880    -0.19600
H2404       H  0.71988946  0.10375465  0.65583821     0.18200
H2405       H  0.74017737  0.13806571  0.63700258     0.18200
F2406       F  0.73795133  0.12227250  0.61665959    -0.19600
C2407       C  0.70448994  0.29574452  0.17792609    -0.21000
C2408       C  0.70745960  0.28413565  0.17758716    -0.09000
C2409       C  0.71903074  0.28112811  0.17644093     0.29800
C2410       C  0.72743957  0.28951533  0.17657075    -0.21000
C2411       C  0.72455829  0.30109384  0.17771287    -0.09000
C2412       C  0.71296651  0.30419154  0.17802607     0.29800
F2413       F  0.70983678  0.31528221  0.17941221    -0.19600
H2414       H  0.69563422  0.29826212  0.17885212     0.18200
H2415       H  0.73628640  0.28691158  0.17595241     0.18200
F2416       F  0.72226104  0.27005059  0.17522359    -0.19600
C2417       C  0.69883601  0.20619369  0.24147397    -0.21000
C2418       C  0.68711392  0.20856094  0.24048977    -0.09000
C2419       C  0.67989538  0.20465595  0.25232940     0.29800
C2420       C  0.68449069  0.19909181  0.26522463    -0.21000
C2421       C  0.69628567  0.19739866  0.26646137    -0.09000
C2422       C  0.70338442  0.20074201  0.25432204     0.29800
F2423       F  0.71482029  0.19910245  0.25517971    -0.19600
H2424       H  0.70459743  0.20887428  0.23246008     0.18200
H2425       H  0.67892886  0.19667318  0.27460223     0.18200
F2426       F  0.66856350  0.20690254  0.25202317    -0.19600
C2427       C  0.50327688  0.21855041  0.10474897    -0.21000
C2428       C  0.50926705  0.22752072  0.11172253    -0.09000
C2429       C  0.50308136  0.23592726  0.11974537     0.29800
C2430       C  0.49107536  0.23565490  0.11986392    -0.21000
C2431       C  0.48514111  0.22703088  0.11196097    -0.09000
C2432       C  0.49140625  0.21826135  0.10488131     0.29800
F2433       F  0.48603943  0.20948279  0.09773449    -0.19600
H2434       H  0.50781962  0.21185008  0.09875832     0.18200
H2435       H  0.48643325  0.24252183  0.12534402     0.18200
F2436       F  0.50855797  0.24481848  0.12644918    -0.19600
C2437       C  0.61254939  0.24651985  0.13311527    -0.21000
C2438       C  0.60285989  0.24109682  0.13918149    -0.09000
C2439       C  0.60332938  0.23705937  0.15442666     0.29800
C2440       C  0.61337439  0.23818926  0.16310826    -0.21000
C2441       C  0.62309066  0.24349912  0.15689984    -0.09000
C2442       C  0.62250770  0.24772603  0.14177907     0.29800
F2443       F  0.63169986  0.25260539  0.13500629    -0.19600
H2444       H  0.61249040  0.24981974  0.12150625     0.18200
H2445       H  0.61354959  0.23488844  0.17472148     0.18200
F2446       F  0.59427945  0.23165369  0.16080300    -0.19600
C2447       C  0.71572217  0.27831606  0.82621419    -0.21000
C2448       C  0.70424523  0.28118251  0.82382274    -0.09000
C2449       C  0.70126487  0.29282608  0.82301714     0.29800
C2450       C  0.70973656  0.30129460  0.82390265    -0.21000
C2451       C  0.72127913  0.29830270  0.82556074    -0.09000
C2452       C  0.72411098  0.28669851  0.82712417     0.29800
F2453       F  0.73501782  0.28337552  0.82971357    -0.19600
H2454       H  0.71828918  0.26949396  0.82740331     0.18200
H2455       H  0.70731596  0.31016131  0.82271090     0.18200
F2456       F  0.69029966  0.29604259  0.82067006    -0.19600
C2457       C  0.70889828  0.18944789  0.76788084    -0.21000
C2458       C  0.70438743  0.18694867  0.75333579    -0.09000
C2459       C  0.69287758  0.18957743  0.75039055     0.29800
C2460       C  0.68634113  0.19540632  0.76147475    -0.21000
C2461       C  0.69119480  0.19864844  0.77560394    -0.09000
C2462       C  0.70239791  0.19512602  0.77892576     0.29800
F2463       F  0.70722663  0.19748608  0.79274308    -0.19600
H2464       H  0.71765551  0.18729459  0.77055967     0.18200
H2465       H  0.67774425  0.19802316  0.75862461     0.18200
F2466       F  0.68823896  0.18736198  0.73642295    -0.19600
C2467       C  0.50567901  0.24509537  0.90805691    -0.21000
C2468       C  0.51083485  0.23775126  0.89741082    -0.09000
C2469       C  0.50406052  0.23273145  0.88589130     0.29800
C2470       C  0.49213776  0.23418037  0.88612539    -0.21000
C2471       C  0.48695748  0.24068254  0.89778683    -0.09000
C2472       C  0.49391770  0.24660638  0.90822608     0.29800
F2473       F  0.48928977  0.25349383  0.91910475    -0.19600
H2474       H  0.51075355  0.24930824  0.91677575     0.18200
H2475       H  0.48693068  0.22959745  0.87791112     0.18200
F2476       F  0.50881526  0.22570944  0.87528563    -0.19600
C2477       C  0.56412545  0.22119650  0.99613812    -0.21000
C2478       C  0.57088566  0.22938053  0.98870643    -0.09000
C2479       C  0.57817634  0.23623616  0.99764182     0.29800
C2480       C  0.57804180  0.23538551  0.01376190    -0.21000
C2481       C  0.57073078  0.22763044  0.02119014    -0.09000
C2482       C  0.56412238  0.22021494  0.01211474     0.29800
F2483       F  0.55763651  0.21195021  0.01862407    -0.19600
H2484       H  0.55871676  0.21553816  0.98953353     0.18200
H2485       H  0.58330426  0.24113395  0.02043206     0.18200
F2486       F  0.58492461  0.24418667  0.99091719    -0.19600
C2487       C  0.60352320  0.23237080  0.85544370    -0.21000
C2488       C  0.60355414  0.23891061  0.86899780    -0.09000
C2489       C  0.61306011  0.24584221  0.87208828     0.29800
C2490       C  0.62235770  0.24602241  0.86201191    -0.21000
C2491       C  0.62249465  0.23927958  0.84861092    -0.09000
C2492       C  0.61289523  0.23246447  0.84540515     0.29800
F2493       F  0.61242907  0.22602582  0.83247238    -0.19600
H2494       H  0.59630979  0.22698300  0.85274618     0.18200
H2495       H  0.62954779  0.25137274  0.86490426     0.18200
F2496       F  0.61330733  0.25266149  0.88468924    -0.19600
loop_ 
_geom_bond_atom_site_label_1 
_geom_bond_atom_site_label_2 
_geom_bond_distance 
_geom_bond_site_symmetry_2 
_ccdc_geom_bond_type 
N1            N2   1.321       .  A
N1            C5   1.354       .  A
N1           Cu9   2.096       .  S
N2            C3   1.339       .  A
N2           Cu8   2.062       .  S
C3            C4   1.381       .  A
C3            H6   1.082       .  S
C4            C5   1.391       .  A
C4         C2468   1.482       .  S
C5            H7   1.082       .  S
Cu8          N11   2.062       .  S
Cu9          N19   2.098       .  S
Cu10         N12   2.096       .  S
Cu10         N18   2.099       .  S
N11          N12   1.320       .  A
N11          C15   1.341       .  A
N12          C13   1.352       .  A
C13          C14   1.392       .  A
C13          H16   1.082       .  S
C14          C15   1.383       .  A
C14        C2478   1.486       .  S
C15          H17   1.083       .  S
N18          N19   1.326       .  A
N18          C22   1.348       .  A
N19          C20   1.349       .  A
C20          C21   1.387       .  A
C20          H23   1.082       .  S
C21          C22   1.388       .  A
C21        C2488   1.490       .  S
C22          H24   1.081       .  S
N25          N26   1.322       .  A
N25          C29   1.356       .  A
N25         Cu33   2.113       .  S
N26          C27   1.340       .  A
N26         Cu32   2.065       .  S
C27          C28   1.381       .  A
C27          H30   1.082       .  S
C28          C29   1.396       .  A
C28        C2461   1.489       .  S
C29          H31   1.080       .  S
Cu32         N35   2.066       .  S
Cu33         N43   2.116       .  S
Cu34         N36   2.079       .  S
Cu34         N42   2.081       .  S
N35          N36   1.318       .  A
N35          C39   1.341       .  A
N36          C37   1.350       .  A
C37          C38   1.392       .  A
C37          H40   1.081       .  S
C38          C39   1.388       .  A
C38        C2448   1.490       .  S
C39          H41   1.082       .  S
N42          N43   1.325       .  A
N42          C46   1.343       .  A
N43          C44   1.353       .  A
C44          C45   1.395       .  A
C44          H47   1.081       .  S
C45          C46   1.385       .  A
C45        C2491   1.496       .  S
C46          H48   1.082       .  S
N49          N50   1.323       .  A
N49          C53   1.355       .  A
N49         Cu57   2.109       .  S
N50          C51   1.340       .  A
N50         Cu56   2.064       .  S
C51          C52   1.381       .  A
C51          H54   1.082       .  S
C52          C53   1.393       .  A
C52        C2428   1.487       .  S
C53          H55   1.082       .  S
Cu56         N59   2.064       .  S
Cu57         N67   2.111       .  S
Cu58         N60   2.081       .  S
Cu58         N66   2.083       .  S
N59          N60   1.318       .  A
N59          C63   1.341       .  A
N60          C61   1.350       .  A
C61          C62   1.391       .  A
C61          H64   1.082       .  S
C62          C63   1.387       .  A
C62        C2481   1.489       .  S
C63          H65   1.082       .  S
N66          N67   1.325       .  A
N66          C70   1.342       .  A
N67          C68   1.353       .  A
C68          C69   1.393       .  A
C68          H71   1.081       .  S
C69          C70   1.385       .  A
C69        C2438   1.494       .  S
C70          H72   1.082       .  S
N73          N74   1.320       .  A
N73          C77   1.351       .  A
N73         Cu81   2.096       .  S
N74          C75   1.340       .  A
N74         Cu80   2.057       .  S
C75          C76   1.383       .  A
C75          H78   1.082       .  S
C76          C77   1.393       .  A
C76        C2418   1.487       .  S
C77          H79   1.081       .  S
Cu80         N83   2.056       .  S
Cu81         N91   2.098       .  S
Cu82         N84   2.087       .  S
Cu82         N90   2.090       .  S
N83          N84   1.320       .  A
N83          C87   1.340       .  A
N84          C85   1.351       .  A
C85          C86   1.390       .  A
C85          H88   1.082       .  S
C86          C87   1.382       .  A
C86        C2408   1.482       .  S
C87          H89   1.082       .  S
N90          N91   1.325       .  A
N90          C94   1.345       .  A
N91          C92   1.349       .  A
C92          C93   1.389       .  A
C92          H95   1.081       .  S
C93          C94   1.387       .  A
C93        C2441   1.491       .  S
C94          H96   1.081       .  S
N97          N98   1.322       .  A
N97         C101   1.354       .  A
N97        Cu105   2.105       .  S
N98          C99   1.340       .  A
N98        Cu104   2.062       .  S
C99         C100   1.381       .  A
C99         H102   1.082       .  S
C100        C101   1.393       .  A
C100       C2378   1.486       .  S
C101        H103   1.081       .  S
Cu104       N107   2.062       .  S
Cu105       N115   2.108       .  S
Cu106       N108   2.085       .  S
Cu106       N114   2.088       .  S
N107        N108   1.319       .  A
N107        C111   1.341       .  A
N108        C109   1.350       .  A
C109        C110   1.391       .  A
C109        H112   1.082       .  S
C110        C111   1.385       .  A
C110       C2388   1.487       .  S
C111        H113   1.081       .  S
N114        N115   1.325       .  A
N114        C118   1.345       .  A
N115        C116   1.350       .  A
C116        C117   1.392       .  A
C116        H119   1.082       .  S
C117        C118   1.387       .  A
C117       C2398   1.495       .  S
C118        H120   1.080       .  S
N121        N122   1.320       .  A
N121        C125   1.353       .  A
N121       Cu129   2.097       .  S
N122        C123   1.342       .  A
N122       Cu128   2.068       .  S
C123        C124   1.383       .  A
C123        H126   1.082       .  S
C124        C125   1.392       .  A
C124       C2458   1.487       .  S
C125        H127   1.081       .  S
Cu128       N131   2.067       .  S
Cu129       N139   2.099       .  S
Cu130       N132   2.095       .  S
Cu130       N138   2.098       .  S
N131        N132   1.321       .  A
N131        C135   1.340       .  A
N132        C133   1.354       .  A
C133        C134   1.393       .  A
C133        H136   1.081       .  S
C134        C135   1.384       .  A
C134       C2368   1.489       .  S
C135        H137   1.082       .  S
N138        N139   1.326       .  A
N138        C142   1.348       .  A
N139        C140   1.348       .  A
C140        C141   1.387       .  A
C140        H143   1.081       .  S
C141        C142   1.388       .  A
C141       C2401   1.491       .  S
C142        H144   1.082       .  S
N145        N146   1.322       .  A
N145        C149   1.355       .  A
N145       Cu153   2.102       .  S
N146        C147   1.339       .  A
N146       Cu152   2.064       .  S
C147        C148   1.382       .  A
C147        H150   1.082       .  S
C148        C149   1.393       .  A
C148       C2351   1.487       .  S
C149        H151   1.082       .  S
Cu152       N155   2.063       .  S
Cu153       N163   2.104       .  S
Cu154       N156   2.080       .  S
Cu154       N162   2.082       .  S
N155        N156   1.319       .  A
N155        C159   1.341       .  A
N156        C157   1.350       .  A
C157        C158   1.390       .  A
C157        H160   1.081       .  S
C158        C159   1.385       .  A
C158       C2391   1.485       .  S
C159        H161   1.083       .  S
N162        N163   1.325       .  A
N162        C166   1.344       .  A
N163        C164   1.350       .  A
C164        C165   1.390       .  A
C164        H167   1.082       .  S
C165        C166   1.385       .  A
C165       C2361   1.489       .  S
C166        H168   1.081       .  S
N169        N170   1.322       .  A
N169        C173   1.351       .  A
N169       Cu177   2.089       .  S
N170        C171   1.340       .  A
N170       Cu176   2.063       .  S
C171        C172   1.379       .  A
C171        H174   1.082       .  S
C172        C173   1.388       .  A
C172       C2421   1.474       .  S
C173        H175   1.081       .  S
Cu176       N179   2.064       .  S
Cu177       N187   2.091       .  S
Cu178       N180   2.084       .  S
Cu178       N186   2.086       .  S
N179        N180   1.320       .  A
N179        C183   1.342       .  A
N180        C181   1.349       .  A
C181        C182   1.391       .  A
C181        H184   1.082       .  S
C182        C183   1.385       .  A
C182       C2338   1.485       .  S
C183        H185   1.082       .  S
N186        N187   1.325       .  A
N186        C190   1.344       .  A
N187        C188   1.348       .  A
C188        C189   1.388       .  A
C188        H191   1.082       .  S
C189        C190   1.387       .  A
C189       C2358   1.489       .  S
C190        H192   1.082       .  S
N193        N194   1.321       .  A
N193        C197   1.357       .  A
N193       Cu201   2.112       .  S
N194        C195   1.339       .  A
N194       Cu200   2.057       .  S
C195        C196   1.380       .  A
C195        H198   1.082       .  S
C196        C197   1.395       .  A
C196       C2311   1.487       .  S
C197        H199   1.081       .  S
Cu200       N203   2.056       .  S
Cu201       N211   2.115       .  S
Cu202       N204   2.085       .  S
Cu202       N210   2.088       .  S
N203        N204   1.318       .  A
N203        C207   1.338       .  A
N204        C205   1.352       .  A
C205        C206   1.394       .  A
C205        H208   1.081       .  S
C206        C207   1.384       .  A
C206       C2318   1.488       .  S
C207        H209   1.082       .  S
N210        N211   1.327       .  A
N210        C214   1.344       .  A
N211        C212   1.352       .  A
C212        C213   1.392       .  A
C212        H215   1.081       .  S
C213        C214   1.385       .  A
C213       C2328   1.494       .  S
C214        H216   1.082       .  S
N217        N218   1.321       .  A
N217        C221   1.354       .  A
N217       Cu225   2.100       .  S
N218        C219   1.340       .  A
N218       Cu224   2.059       .  S
C219        C220   1.381       .  A
C219        H222   1.082       .  S
C220        C221   1.393       .  A
C220       C2298   1.484       .  S
C221        H223   1.081       .  S
Cu224       N227   2.059       .  S
Cu225       N235   2.102       .  S
Cu226       N228   2.095       .  S
Cu226       N234   2.098       .  S
N227        N228   1.320       .  A
N227        C231   1.340       .  A
N228        C229   1.353       .  A
C229        C230   1.393       .  A
C229        H232   1.082       .  S
C230        C231   1.384       .  A
C230       C2451   1.488       .  S
C231        H233   1.081       .  S
N234        N235   1.327       .  A
N234        C238   1.347       .  A
N235        C236   1.350       .  A
C236        C237   1.388       .  A
C236        H239   1.081       .  S
C237        C238   1.388       .  A
C237       C2331   1.491       .  S
C238        H240   1.081       .  S
N241        N242   1.322       .  A
N241        C245   1.355       .  A
N241       Cu249   2.099       .  S
N242        C243   1.336       .  A
N242       Cu248   2.059       .  S
C243        C244   1.379       .  A
C243        H246   1.082       .  S
C244        C245   1.393       .  A
C244       C2281   1.483       .  S
C245        H247   1.081       .  S
Cu248       N251   2.059       .  S
Cu249       N259   2.102       .  S
Cu250       N252   2.070       .  S
Cu250       N258   2.072       .  S
N251        N252   1.317       .  A
N251        C255   1.341       .  A
N252        C253   1.349       .  A
C253        C254   1.389       .  A
C253        H256   1.081       .  S
C254        C255   1.386       .  A
C254       C2321   1.483       .  S
C255        H257   1.081       .  S
N258        N259   1.326       .  A
N258        C262   1.340       .  A
N259        C260   1.351       .  A
C260        C261   1.390       .  A
C260        H263   1.082       .  S
C261        C262   1.381       .  A
C261       C2291   1.486       .  S
C262        H264   1.080       .  S
N265        N266   1.322       .  A
N265        C269   1.352       .  A
N265       Cu273   2.084       .  S
N266        C267   1.339       .  A
N266       Cu272   2.062       .  S
C267        C268   1.378       .  A
C267        H270   1.082       .  S
C268        C269   1.387       .  A
C268       C2268   1.472       .  S
C269        H271   1.081       .  S
Cu272       N275   2.062       .  S
Cu273       N283   2.085       .  S
Cu274       N276   2.079       .  S
Cu274       N282   2.081       .  S
N275        N276   1.320       .  A
N275        C279   1.341       .  A
N276        C277   1.349       .  A
C277        C278   1.389       .  A
C277        H280   1.082       .  S
C278        C279   1.384       .  A
C278       C2411   1.482       .  S
C279        H281   1.082       .  S
N282        N283   1.324       .  A
N282        C286   1.343       .  A
N283        C284   1.347       .  A
C284        C285   1.387       .  A
C284        H287   1.081       .  S
C285        C286   1.386       .  A
C285       C2288   1.485       .  S
C286        H288   1.082       .  S
N289        N290   1.321       .  A
N289        C293   1.353       .  A
N289       Cu297   2.093       .  S
N290        C291   1.341       .  A
N290       Cu296   2.069       .  S
C291        C292   1.383       .  A
C291        H294   1.082       .  S
C292        C293   1.390       .  A
C292       C2301   1.484       .  S
C293        H295   1.081       .  S
Cu296       N299   2.068       .  S
Cu297       N307   2.095       .  S
Cu298       N300   2.090       .  S
Cu298       N306   2.092       .  S
N299        N300   1.320       .  A
N299        C303   1.340       .  A
N300        C301   1.352       .  A
C301        C302   1.391       .  A
C301        H304   1.082       .  S
C302        C303   1.385       .  A
C302       C2371   1.488       .  S
C303        H305   1.081       .  S
N306        N307   1.326       .  A
N306        C310   1.346       .  A
N307        C308   1.349       .  A
C308        C309   1.386       .  A
C308        H311   1.082       .  S
C309        C310   1.385       .  A
C309       C2258   1.485       .  S
C310        H312   1.081       .  S
N313        N314   1.321       .  A
N313        C317   1.355       .  A
N313       Cu321   2.103       .  S
N314        C315   1.339       .  A
N314       Cu320   2.059       .  S
C315        C316   1.379       .  A
C315        H318   1.082       .  S
C316        C317   1.393       .  A
C316       C2238   1.482       .  S
C317        H319   1.082       .  S
Cu320       N323   2.059       .  S
Cu321       N331   2.106       .  S
Cu322       N324   2.089       .  S
Cu322       N330   2.092       .  S
N323        N324   1.319       .  A
N323        C327   1.339       .  A
N324        C325   1.352       .  A
C325        C326   1.393       .  A
C325        H328   1.082       .  S
C326        C327   1.385       .  A
C326       C2248   1.489       .  S
C327        H329   1.081       .  S
N330        N331   1.326       .  A
N330        C334   1.345       .  A
N331        C332   1.350       .  A
C332        C333   1.392       .  A
C332        H335   1.081       .  S
C333        C334   1.387       .  A
C333       C2261   1.495       .  S
C334        H336   1.082       .  S
N337        N338   1.321       .  A
N337        C341   1.350       .  A
N337       Cu345   2.082       .  S
N338        C339   1.340       .  A
N338       Cu344   2.071       .  S
C339        C340   1.385       .  A
C339        H342   1.082       .  S
C340        C341   1.390       .  A
C340       C2271   1.485       .  S
C341        H343   1.081       .  S
Cu344       N347   2.070       .  S
Cu345       N355   2.084       .  S
Cu346       N348   2.081       .  S
Cu346       N354   2.082       .  S
N347        N348   1.320       .  A
N347        C351   1.343       .  A
N348        C349   1.349       .  A
C349        C350   1.389       .  A
C349        H352   1.082       .  S
C350        C351   1.386       .  A
C350       C2341   1.485       .  S
C351        H353   1.082       .  S
N354        N355   1.324       .  A
N354        C358   1.343       .  A
N355        C356   1.347       .  A
C356        C357   1.388       .  A
C356        H359   1.082       .  S
C357        C358   1.387       .  A
C357       C2228   1.489       .  S
C358        H360   1.080       .  S
N361        N362   1.321       .  A
N361        C365   1.355       .  A
N361       Cu369   2.101       .  S
N362        C363   1.338       .  A
N362       Cu368   2.058       .  S
C363        C364   1.381       .  A
C363        H366   1.082       .  S
C364        C365   1.394       .  A
C364       C2218   1.486       .  S
C365        H367   1.081       .  S
Cu368       N371   2.058       .  S
Cu369       N379   2.104       .  S
Cu370       N372   2.080       .  S
Cu370       N378   2.083       .  S
N371        N372   1.319       .  A
N371        C375   1.339       .  A
N372        C373   1.352       .  A
C373        C374   1.391       .  A
C373        H376   1.082       .  S
C374        C375   1.382       .  A
C374       C2251   1.481       .  S
C375        H377   1.082       .  S
N378        N379   1.327       .  A
N378        C382   1.342       .  A
N379        C380   1.351       .  A
C380        C381   1.390       .  A
C380        H383   1.081       .  S
C381        C382   1.383       .  A
C381       C2231   1.487       .  S
C382        H384   1.081       .  S
N385        N386   1.320       .  A
N385        C389   1.352       .  A
N385       Cu393   2.085       .  S
N386        C387   1.339       .  A
N386       Cu392   2.059       .  S
C387        C388   1.381       .  A
C387        H390   1.082       .  S
C388        C389   1.390       .  A
C388       C2198   1.479       .  S
C389        H391   1.080       .  S
Cu392       N395   2.059       .  S
Cu393       N403   2.087       .  S
Cu394       N396   2.101       .  S
Cu394       N402   2.103       .  S
N395        N396   1.320       .  A
N395        C399   1.339       .  A
N396        C397   1.354       .  A
C397        C398   1.394       .  A
C397        H400   1.082       .  S
C398        C399   1.383       .  A
C398       C2188   1.489       .  S
C399        H401   1.082       .  S
N402        N403   1.327       .  A
N402        C406   1.349       .  A
N403        C404   1.347       .  A
C404        C405   1.382       .  A
C404        H407   1.082       .  S
C405        C406   1.386       .  A
C405       C2208   1.481       .  S
C406        H408   1.082       .  S
N409        N410   1.322       .  A
N409        C413   1.354       .  A
N409       Cu417   2.101       .  S
N410        C411   1.341       .  A
N410       Cu416   2.070       .  S
C411        C412   1.384       .  A
C411        H414   1.082       .  S
C412        C413   1.393       .  A
C412       C2308   1.488       .  S
C413        H415   1.082       .  S
Cu416       N419   2.070       .  S
Cu417       N427   2.103       .  S
Cu418       N420   2.083       .  S
Cu418       N426   2.084       .  S
N419        N420   1.320       .  A
N419        C423   1.342       .  A
N420        C421   1.350       .  A
C421        C422   1.389       .  A
C421        H424   1.081       .  S
C422        C423   1.386       .  A
C422       C2178   1.485       .  S
C423        H425   1.081       .  S
N426        N427   1.326       .  A
N426        C430   1.345       .  A
N427        C428   1.350       .  A
C428        C429   1.388       .  A
C428        H431   1.081       .  S
C429        C430   1.384       .  A
C429       C2211   1.485       .  S
C430        H432   1.082       .  S
N433        N434   1.321       .  A
N433        C437   1.352       .  A
N433       Cu441   2.091       .  S
N434        C435   1.339       .  A
N434       Cu440   2.063       .  S
C435        C436   1.382       .  A
C435        H438   1.082       .  S
C436        C437   1.391       .  A
C436       C2158   1.483       .  S
C437        H439   1.080       .  S
Cu440       N443   2.063       .  S
Cu441       N451   2.093       .  S
Cu442       N444   2.077       .  S
Cu442       N450   2.079       .  S
N443        N444   1.319       .  A
N443        C447   1.340       .  A
N444        C445   1.349       .  A
C445        C446   1.390       .  A
C445        H448   1.081       .  S
C446        C447   1.385       .  A
C446       C2148   1.485       .  S
C447        H449   1.082       .  S
N450        N451   1.325       .  A
N450        C454   1.343       .  A
N451        C452   1.348       .  A
C452        C453   1.388       .  A
C452        H455   1.081       .  S
C453        C454   1.385       .  A
C453       C2171   1.486       .  S
C454        H456   1.082       .  S
N457        N458   1.320       .  A
N457        C461   1.354       .  A
N457       Cu465   2.095       .  S
N458        C459   1.337       .  A
N458       Cu464   2.051       .  S
C459        C460   1.379       .  A
C459        H462   1.082       .  S
C460        C461   1.392       .  A
C460       C2278   1.480       .  S
C461        H463   1.082       .  S
Cu464       N467   2.051       .  S
Cu465       N475   2.098       .  S
Cu466       N468   2.085       .  S
Cu466       N474   2.089       .  S
N467        N468   1.316       .  A
N467        C471   1.337       .  A
N468        C469   1.352       .  A
C469        C470   1.397       .  A
C469        H472   1.080       .  S
C470        C471   1.387       .  A
C470       C2181   1.494       .  S
C471        H473   1.081       .  S
N474        N475   1.327       .  A
N474        C478   1.343       .  A
N475        C476   1.349       .  A
C476        C477   1.386       .  A
C476        H479   1.082       .  S
C477        C478   1.383       .  A
C477       C2168   1.482       .  S
C478        H480   1.081       .  S
N481        N482   1.321       .  A
N481        C485   1.353       .  A
N481       Cu489   2.095       .  S
N482        C483   1.339       .  A
N482       Cu488   2.061       .  S
C483        C484   1.382       .  A
C483        H486   1.082       .  S
C484        C485   1.392       .  A
C484       C2201   1.485       .  S
C485        H487   1.081       .  S
Cu488       N491   2.061       .  S
Cu489       N499   2.098       .  S
Cu490       N492   2.096       .  S
Cu490       N498   2.099       .  S
N491        N492   1.321       .  A
N491        C495   1.342       .  A
N492        C493   1.352       .  A
C493        C494   1.390       .  A
C493        H496   1.082       .  S
C494        C495   1.381       .  A
C494       C2128   1.481       .  S
C495        H497   1.081       .  S
N498        N499   1.326       .  A
N498        C502   1.348       .  A
N499        C500   1.349       .  A
C500        C501   1.388       .  A
C500        H503   1.082       .  S
C501        C502   1.388       .  A
C501       C2138   1.491       .  S
C502        H504   1.081       .  S
N505        N506   1.322       .  A
N505        C509   1.353       .  A
N505       Cu513   2.101       .  S
N506        C507   1.340       .  A
N506       Cu512   2.065       .  S
C507        C508   1.382       .  A
C507        H510   1.082       .  S
C508        C509   1.393       .  A
C508       C2108   1.487       .  S
C509        H511   1.082       .  S
Cu512       N515   2.065       .  S
Cu513       N523   2.103       .  S
Cu514       N516   2.087       .  S
Cu514       N522   2.089       .  S
N515        N516   1.320       .  A
N515        C519   1.343       .  A
N516        C517   1.349       .  A
C517        C518   1.390       .  A
C517        H520   1.082       .  S
C518        C519   1.385       .  A
C518       C2118   1.485       .  S
C519        H521   1.082       .  S
N522        N523   1.325       .  A
N522        C526   1.346       .  A
N523        C524   1.350       .  A
C524        C525   1.391       .  A
C524        H527   1.081       .  S
C525        C526   1.387       .  A
C525       C2141   1.494       .  S
C526        H528   1.082       .  S
N529        N530   1.321       .  A
N529        C533   1.353       .  A
N529       Cu537   2.092       .  S
N530        C531   1.340       .  A
N530       Cu536   2.064       .  S
C531        C532   1.382       .  A
C531        H534   1.082       .  S
C532        C533   1.391       .  A
C532       C2161   1.483       .  S
C533        H535   1.082       .  S
Cu536       N539   2.064       .  S
Cu537       N547   2.095       .  S
Cu538       N540   2.085       .  S
Cu538       N546   2.088       .  S
N539        N540   1.320       .  A
N539        C543   1.341       .  A
N540        C541   1.351       .  A
C541        C542   1.389       .  A
C541        H544   1.082       .  S
C542        C543   1.383       .  A
C542       C2088   1.481       .  S
C543        H545   1.082       .  S
N546        N547   1.325       .  A
N546        C550   1.345       .  A
N547        C548   1.349       .  A
C548        C549   1.388       .  A
C548        H551   1.082       .  S
C549        C550   1.386       .  A
C549       C2101   1.489       .  S
C550        H552   1.081       .  S
N553        N554   1.321       .  A
N553        C557   1.355       .  A
N553       Cu561   2.106       .  S
N554        C555   1.339       .  A
N554       Cu560   2.061       .  S
C555        C556   1.383       .  A
C555        H558   1.082       .  S
C556        C557   1.396       .  A
C556       C2078   1.492       .  S
C557        H559   1.081       .  S
Cu560       N563   2.060       .  S
Cu561       N571   2.108       .  S
Cu562       N564   2.083       .  S
Cu562       N570   2.085       .  S
N563        N564   1.319       .  A
N563        C567   1.341       .  A
N564        C565   1.350       .  A
C565        C566   1.391       .  A
C565        H568   1.081       .  S
C566        C567   1.383       .  A
C566       C2121   1.484       .  S
C567        H569   1.083       .  S
N570        N571   1.325       .  A
N570        C574   1.343       .  A
N571        C572   1.351       .  A
C572        C573   1.393       .  A
C572        H575   1.081       .  S
C573        C574   1.386       .  A
C573       C2098   1.494       .  S
C574        H576   1.081       .  S
N577        N578   1.321       .  A
N577        C581   1.353       .  A
N577       Cu585   2.089       .  S
N578        C579   1.337       .  A
N578       Cu584   2.063       .  S
C579        C580   1.381       .  A
C579        H582   1.082       .  S
C580        C581   1.391       .  A
C580       C2058   1.482       .  S
C581        H583   1.081       .  S
Cu584       N587   2.063       .  S
Cu585       N595   2.092       .  S
Cu586       N588   2.089       .  S
Cu586       N594   2.091       .  S
N587        N588   1.319       .  A
N587        C591   1.342       .  A
N588        C589   1.351       .  A
C589        C590   1.393       .  A
C589        H592   1.081       .  S
C590        C591   1.386       .  A
C590       C2131   1.490       .  S
C591        H593   1.081       .  S
N594        N595   1.325       .  A
N594        C598   1.346       .  A
N595        C596   1.347       .  A
C596        C597   1.388       .  A
C596        H599   1.081       .  S
C597        C598   1.388       .  A
C597       C2068   1.490       .  S
C598        H600   1.081       .  S
N601        N602   1.320       .  A
N601        C605   1.355       .  A
N601       Cu609   2.107       .  S
N602        C603   1.339       .  A
N602       Cu608   2.049       .  S
C603        C604   1.379       .  A
C603        H606   1.082       .  S
C604        C605   1.395       .  A
C604       C2381   1.484       .  S
C605        H607   1.082       .  S
Cu608       N611   2.048       .  S
Cu609       N619   2.110       .  S
Cu610       N612   2.078       .  S
Cu610       N618   2.081       .  S
N611        N612   1.318       .  A
N611        C615   1.338       .  A
N612        C613   1.350       .  A
C613        C614   1.392       .  A
C613        H616   1.078       .  S
C614        C615   1.382       .  A
C614       C2048   1.481       .  S
C615        H617   1.080       .  S
N618        N619   1.327       .  A
N618        C622   1.344       .  A
N619        C620   1.350       .  A
C620        C621   1.389       .  A
C620        H623   1.082       .  S
C621        C622   1.382       .  A
C621       C2071   1.485       .  S
C622        H624   1.082       .  S
N625        N626   1.320       .  A
N625        C629   1.356       .  A
N625       Cu633   2.100       .  S
N626        C627   1.337       .  A
N626       Cu632   2.054       .  S
C627        C628   1.381       .  A
C627        H630   1.082       .  S
C628        C629   1.395       .  A
C628       C2028   1.487       .  S
C629        H631   1.081       .  S
Cu632       N635   2.054       .  S
Cu633       N643   2.103       .  S
Cu634       N636   2.079       .  S
Cu634       N642   2.082       .  S
N635        N636   1.318       .  A
N635        C639   1.338       .  A
N636        C637   1.352       .  A
C637        C638   1.391       .  A
C637        H640   1.082       .  S
C638        C639   1.383       .  A
C638       C2091   1.483       .  S
C639        H641   1.082       .  S
N642        N643   1.327       .  A
N642        C646   1.343       .  A
N643        C644   1.349       .  A
C644        C645   1.389       .  A
C644        H647   1.081       .  S
C645        C646   1.383       .  A
C645       C2038   1.485       .  S
C646        H648   1.083       .  S
N649        N650   1.322       .  A
N649        C653   1.354       .  A
N649       Cu657   2.096       .  S
N650        C651   1.338       .  A
N650       Cu656   2.065       .  S
C651        C652   1.381       .  A
C651        H654   1.082       .  S
C652        C653   1.392       .  A
C652       C2348   1.485       .  S
C653        H655   1.081       .  S
Cu656       N659   2.064       .  S
Cu657       N667   2.097       .  S
Cu658       N660   2.068       .  S
Cu658       N666   2.071       .  S
N659        N660   1.319       .  A
N659        C663   1.341       .  A
N660        C661   1.346       .  A
C661        C662   1.388       .  A
C661        H664   1.083       .  S
C662        C663   1.387       .  A
C662       C2051   1.483       .  S
C663        H665   1.087       .  S
N666        N667   1.325       .  A
N666        C670   1.343       .  A
N667        C668   1.348       .  A
C668        C669   1.388       .  A
C668        H671   1.082       .  S
C669        C670   1.383       .  A
C669       C2041   1.484       .  S
C670        H672   1.081       .  S
N673        N674   1.322       .  A
N673        C677   1.353       .  A
N673       Cu681   2.099       .  S
N674        C675   1.341       .  A
N674       Cu680   2.066       .  S
C675        C676   1.382       .  A
C675        H678   1.082       .  S
C676        C677   1.392       .  A
C676       C1998   1.485       .  S
C677        H679   1.082       .  S
Cu680       N683   2.067       .  S
Cu681       N691   2.101       .  S
Cu682       N684   2.081       .  S
Cu682       N690   2.083       .  S
N683        N684   1.319       .  A
N683        C687   1.343       .  A
N684        C685   1.349       .  A
C685        C686   1.391       .  A
C685        H688   1.081       .  S
C686        C687   1.387       .  A
C686       C2008   1.490       .  S
C687        H689   1.080       .  S
N690        N691   1.324       .  A
N690        C694   1.344       .  A
N691        C692   1.350       .  A
C692        C693   1.391       .  A
C692        H695   1.082       .  S
C693        C694   1.386       .  A
C693       C2018   1.492       .  S
C694        H696   1.080       .  S
N697        N698   1.322       .  A
N697        C701   1.353       .  A
N697       Cu705   2.087       .  S
N698        C699   1.339       .  A
N698       Cu704   2.065       .  S
C699        C700   1.380       .  A
C699        H702   1.082       .  S
C700        C701   1.388       .  A
C700       C2061   1.476       .  S
C701        H703   1.081       .  S
Cu704       N707   2.065       .  S
Cu705       N715   2.089       .  S
Cu706       N708   2.093       .  S
Cu706       N714   2.096       .  S
N707        N708   1.321       .  A
N707        C711   1.342       .  A
N708        C709   1.352       .  A
C709        C710   1.390       .  A
C709        H712   1.082       .  S
C710        C711   1.383       .  A
C710       C2191   1.484       .  S
C711        H713   1.082       .  S
N714        N715   1.325       .  A
N714        C718   1.347       .  A
N715        C716   1.347       .  A
C716        C717   1.388       .  A
C716        H719   1.081       .  S
C717        C718   1.389       .  A
C717       C2021   1.491       .  S
C718        H720   1.083       .  S
N721        N722   1.320       .  A
N721        C725   1.356       .  A
N721       Cu729   2.109       .  S
N722        C723   1.337       .  A
N722       Cu728   2.047       .  S
C723        C724   1.381       .  A
C723        H726   1.082       .  S
C724        C725   1.396       .  A
C724       C2031   1.488       .  S
C725        H727   1.080       .  S
Cu728       N731   2.047       .  S
Cu729       N739   2.112       .  S
Cu730       N732   2.087       .  S
Cu730       N738   2.091       .  S
N731        N732   1.318       .  A
N731        C735   1.338       .  A
N732        C733   1.352       .  A
C733        C734   1.391       .  A
C733        H736   1.082       .  S
C734        C735   1.380       .  A
C734       C2151   1.479       .  S
C735        H737   1.081       .  S
N738        N739   1.328       .  A
N738        C742   1.345       .  A
N739        C740   1.351       .  A
C740        C741   1.389       .  A
C740        H743   1.081       .  S
C741        C742   1.383       .  A
C741       C1988   1.489       .  S
C742        H744   1.082       .  S
N745        N746   1.322       .  A
N745        C749   1.353       .  A
N745       Cu753   2.103       .  S
N746        C747   1.341       .  A
N746       Cu752   2.061       .  S
C747        C748   1.380       .  A
C747        H750   1.082       .  S
C748        C749   1.392       .  A
C748       C1978   1.481       .  S
C749        H751   1.081       .  S
Cu752       N755   2.061       .  S
Cu753       N763   2.105       .  S
Cu754       N756   2.092       .  S
Cu754       N762   2.094       .  S
N755        N756   1.319       .  A
N755        C759   1.342       .  A
N756        C757   1.350       .  A
C757        C758   1.394       .  A
C757        H760   1.081       .  S
C758        C759   1.386       .  A
C758       C2011   1.492       .  S
C759        H761   1.082       .  S
N762        N763   1.325       .  A
N762        C766   1.346       .  A
N763        C764   1.350       .  A
C764        C765   1.393       .  A
C764        H767   1.081       .  S
C765        C766   1.390       .  A
C765       C1991   1.500       .  S
C766        H768   1.082       .  S
N769        N770   1.321       .  A
N769        C773   1.353       .  A
N769       Cu777   2.094       .  S
N770        C771   1.340       .  A
N770       Cu776   2.065       .  S
C771        C772   1.383       .  A
C771        H774   1.082       .  S
C772        C773   1.392       .  A
C772       C1951   1.486       .  S
C773        H775   1.081       .  S
Cu776       N779   2.064       .  S
Cu777       N787   2.096       .  S
Cu778       N780   2.090       .  S
Cu778       N786   2.093       .  S
N779        N780   1.318       .  A
N779        C783   1.340       .  A
N780        C781   1.352       .  A
C781        C782   1.397       .  A
C781        H784   1.080       .  S
C782        C783   1.389       .  A
C782       C1958   1.497       .  S
C783        H785   1.080       .  S
N786        N787   1.326       .  A
N786        C790   1.346       .  A
N787        C788   1.349       .  A
C788        C789   1.387       .  A
C788        H791   1.082       .  S
C789        C790   1.386       .  A
C789       C1968   1.488       .  S
C790        H792   1.082       .  S
N793        N794   1.321       .  A
N793        C797   1.352       .  A
N793       Cu801   2.092       .  S
N794        C795   1.340       .  A
N794       Cu800   2.065       .  S
C795        C796   1.382       .  A
C795        H798   1.082       .  S
C796        C797   1.391       .  A
C796       C1938   1.483       .  S
C797        H799   1.082       .  S
Cu800       N803   2.066       .  S
Cu801       N811   2.094       .  S
Cu802       N804   2.087       .  S
Cu802       N810   2.089       .  S
N803        N804   1.320       .  A
N803        C807   1.341       .  A
N804        C805   1.351       .  A
C805        C806   1.391       .  A
C805        H808   1.082       .  S
C806        C807   1.386       .  A
C806       C1928   1.488       .  S
C807        H809   1.081       .  S
N810        N811   1.325       .  A
N810        C814   1.346       .  A
N811        C812   1.347       .  A
C812        C813   1.388       .  A
C812        H815   1.081       .  S
C813        C814   1.387       .  A
C813       C1971   1.489       .  S
C814        H816   1.080       .  S
N817        N818   1.322       .  A
N817        C821   1.354       .  A
N817       Cu825   2.108       .  S
N818        C819   1.340       .  A
N818       Cu824   2.067       .  S
C819        C820   1.383       .  A
C819        H822   1.082       .  S
C820        C821   1.395       .  A
C820       C1908   1.491       .  S
C821        H823   1.082       .  S
Cu824       N827   2.067       .  S
Cu825       N835   2.109       .  S
Cu826       N828   2.081       .  S
Cu826       N834   2.083       .  S
N827        N828   1.319       .  A
N827        C831   1.342       .  A
N828        C829   1.350       .  A
C829        C830   1.390       .  A
C829        H832   1.082       .  S
C830        C831   1.387       .  A
C830       C1961   1.489       .  S
C831        H833   1.081       .  S
N834        N835   1.324       .  A
N834        C838   1.343       .  A
N835        C836   1.351       .  A
C836        C837   1.394       .  A
C836        H839   1.081       .  S
C837        C838   1.387       .  A
C837       C1918   1.498       .  S
C838        H840   1.082       .  S
N841        N842   1.321       .  A
N841        C845   1.356       .  A
N841       Cu849   2.105       .  S
N842        C843   1.338       .  A
N842       Cu848   2.056       .  S
C843        C844   1.381       .  A
C843        H846   1.082       .  S
C844        C845   1.395       .  A
C844       C1898   1.488       .  S
C845        H847   1.081       .  S
Cu848       N851   2.056       .  S
Cu849       N859   2.109       .  S
Cu850       N852   2.089       .  S
Cu850       N858   2.092       .  S
N851        N852   1.319       .  A
N851        C855   1.340       .  A
N852        C853   1.353       .  A
C853        C854   1.392       .  A
C853        H856   1.082       .  S
C854        C855   1.382       .  A
C854       C1888   1.483       .  S
C855        H857   1.082       .  S
N858        N859   1.327       .  A
N858        C862   1.344       .  A
N859        C860   1.351       .  A
C860        C861   1.390       .  A
C860        H863   1.082       .  S
C861        C862   1.385       .  A
C861       C1921   1.491       .  S
C862        H864   1.082       .  S
N865        N866   1.323       .  A
N865        C869   1.355       .  A
N865       Cu873   2.111       .  S
N866        C867   1.340       .  A
N866       Cu872   2.059       .  S
C867        C868   1.379       .  A
C867        H870   1.083       .  S
C868        C869   1.392       .  A
C868       C2111   1.482       .  S
C869        H871   1.081       .  S
Cu872       N875   2.059       .  S
Cu873       N883   2.113       .  S
Cu874       N876   2.066       .  S
Cu874       N882   2.068       .  S
N875        N876   1.318       .  A
N875        C879   1.341       .  A
N876        C877   1.348       .  A
C877        C878   1.386       .  A
C877        H880   1.082       .  S
C878        C879   1.383       .  A
C878       C1868   1.476       .  S
C879        H881   1.083       .  S
N882        N883   1.325       .  A
N882        C886   1.341       .  A
N883        C884   1.353       .  A
C884        C885   1.393       .  A
C884        H887   1.082       .  S
C885        C886   1.381       .  A
C885       C1878   1.488       .  S
C886        H888   1.081       .  S
N889        N890   1.321       .  A
N889        C893   1.353       .  A
N889       Cu897   2.090       .  S
N890        C891   1.339       .  A
N890       Cu896   2.064       .  S
C891        C892   1.380       .  A
C891        H894   1.082       .  S
C892        C893   1.390       .  A
C892       C1941   1.479       .  S
C893        H895   1.080       .  S
Cu896       N899   2.064       .  S
Cu897       N907   2.093       .  S
Cu898       N900   2.097       .  S
Cu898       N906   2.100       .  S
N899        N900   1.320       .  A
N899        C903   1.341       .  A
N900        C901   1.353       .  A
C901        C902   1.394       .  A
C901        H904   1.082       .  S
C902        C903   1.385       .  A
C902       C1858   1.490       .  S
C903        H905   1.081       .  S
N906        N907   1.326       .  A
N906        C910   1.346       .  A
N907        C908   1.349       .  A
C908        C909   1.389       .  A
C908        H911   1.081       .  S
C909        C910   1.389       .  A
C909       C1881   1.493       .  S
C910        H912   1.082       .  S
N913        N914   1.322       .  A
N913        C917   1.356       .  A
N913       Cu921   2.115       .  S
N914        C915   1.339       .  A
N914       Cu920   2.052       .  S
C915        C916   1.378       .  A
C915        H918   1.083       .  S
C916        C917   1.394       .  A
C916       C2081   1.484       .  S
C917        H919   1.081       .  S
Cu920       N923   2.051       .  S
Cu921       N931   2.118       .  S
Cu922       N924   2.079       .  S
Cu922       N930   2.083       .  S
N923        N924   1.318       .  A
N923        C927   1.338       .  A
N924        C925   1.350       .  A
C925        C926   1.390       .  A
C925        H928   1.081       .  S
C926        C927   1.382       .  A
C926       C1871   1.480       .  S
C927        H929   1.082       .  S
N930        N931   1.326       .  A
N930        C934   1.344       .  A
N931        C932   1.352       .  A
C932        C933   1.393       .  A
C932        H935   1.081       .  S
C933        C934   1.384       .  A
C933       C1848   1.493       .  S
C934        H936   1.082       .  S
N937        N938   1.320       .  A
N937        C941   1.354       .  A
N937       Cu945   2.100       .  S
N938        C939   1.339       .  A
N938       Cu944   2.058       .  S
C939        C940   1.384       .  A
C939        H942   1.082       .  S
C940        C941   1.395       .  A
C940       C1901   1.491       .  S
C941        H943   1.080       .  S
Cu944       N947   2.057       .  S
Cu945       N955   2.102       .  S
Cu946       N948   2.091       .  S
Cu946       N954   2.094       .  S
N947        N948   1.318       .  A
N947        C951   1.340       .  A
N948        C949   1.351       .  A
C949        C950   1.396       .  A
C949        H952   1.080       .  S
C950        C951   1.387       .  A
C950       C1841   1.494       .  S
C951        H953   1.081       .  S
N954        N955   1.326       .  A
N954        C958   1.347       .  A
N955        C956   1.349       .  A
C956        C957   1.388       .  A
C956        H959   1.082       .  S
C957        C958   1.388       .  A
C957       C1851   1.492       .  S
C958        H960   1.081       .  S
N961        N962   1.321       .  A
N961        C965   1.353       .  A
N961       Cu969   2.096       .  S
N962        C963   1.340       .  A
N962       Cu968   2.061       .  S
C963        C964   1.381       .  A
C963        H966   1.082       .  S
C964        C965   1.392       .  A
C964       C2001   1.482       .  S
C965        H967   1.081       .  S
Cu968       N971   2.061       .  S
Cu969       N979   2.098       .  S
Cu970       N972   2.085       .  S
Cu970       N978   2.087       .  S
N971        N972   1.319       .  A
N971        C975   1.341       .  A
N972        C973   1.349       .  A
C973        C974   1.392       .  A
C973        H976   1.082       .  S
C974        C975   1.385       .  A
C974       C1818   1.488       .  S
C975        H977   1.081       .  S
N978        N979   1.326       .  A
N978        C982   1.345       .  A
N979        C980   1.348       .  A
C980        C981   1.388       .  A
C980        H983   1.081       .  S
C981        C982   1.385       .  A
C981       C1828   1.487       .  S
C982        H984   1.082       .  S
N985        N986   1.321       .  A
N985        C989   1.354       .  A
N985       Cu993   2.099       .  S
N986        C987   1.338       .  A
N986       Cu992   2.056       .  S
C987        C988   1.381       .  A
C987        H990   1.082       .  S
C988        C989   1.394       .  A
C988       C1811   1.485       .  S
C989        H991   1.081       .  S
Cu992       N995   2.057       .  S
Cu993      N1003   2.102       .  S
Cu994       N996   2.085       .  S
Cu994      N1002   2.088       .  S
N995        N996   1.318       .  A
N995        C999   1.339       .  A
N996        C997   1.352       .  A
C997        C998   1.394       .  A
C997       H1000   1.081       .  S
C998        C999   1.385       .  A
C998       C1931   1.488       .  S
C999       H1001   1.082       .  S
N1002      N1003   1.326       .  A
N1002      C1006   1.344       .  A
N1003      C1004   1.350       .  A
C1004      C1005   1.390       .  A
C1004      H1007   1.082       .  S
C1005      C1006   1.385       .  A
C1005      C1831   1.490       .  S
C1006      H1008   1.081       .  S
N1009      N1010   1.323       .  A
N1009      C1013   1.352       .  A
N1009     Cu1017   2.097       .  S
N1010      C1011   1.342       .  A
N1010     Cu1016   2.068       .  S
C1011      C1012   1.378       .  A
C1011      H1014   1.082       .  S
C1012      C1013   1.388       .  A
C1012      C1981   1.474       .  S
C1013      H1015   1.082       .  S
Cu1016     N1019   2.068       .  S
Cu1017     N1027   2.098       .  S
Cu1018     N1020   2.078       .  S
Cu1018     N1026   2.079       .  S
N1019      N1020   1.320       .  A
N1019      C1023   1.343       .  A
N1020      C1021   1.348       .  A
C1021      C1022   1.389       .  A
C1021      H1024   1.082       .  S
C1022      C1023   1.386       .  A
C1022      C1821   1.484       .  S
C1023      H1025   1.082       .  S
N1026      N1027   1.324       .  A
N1026      C1030   1.344       .  A
N1027      C1028   1.349       .  A
C1028      C1029   1.390       .  A
C1028      H1031   1.081       .  S
C1029      C1030   1.385       .  A
C1029      C1798   1.489       .  S
C1030      H1032   1.082       .  S
N1033      N1034   1.321       .  A
N1033      C1037   1.355       .  A
N1033     Cu1041   2.098       .  S
N1034      C1035   1.340       .  A
N1034     Cu1040   2.065       .  S
C1035      C1036   1.382       .  A
C1035      H1038   1.082       .  S
C1036      C1037   1.392       .  A
C1036      C1788   1.484       .  S
C1037      H1039   1.082       .  S
Cu1040     N1043   2.065       .  S
Cu1041     N1051   2.100       .  S
Cu1042     N1044   2.090       .  S
Cu1042     N1050   2.093       .  S
N1043      N1044   1.320       .  A
N1043      C1047   1.340       .  A
N1044      C1045   1.353       .  A
C1045      C1046   1.392       .  A
C1045      H1048   1.082       .  S
C1046      C1047   1.384       .  A
C1046      C1891   1.488       .  S
C1047      H1049   1.082       .  S
N1050      N1051   1.327       .  A
N1050      C1054   1.347       .  A
N1051      C1052   1.348       .  A
C1052      C1053   1.386       .  A
C1052      H1055   1.082       .  S
C1053      C1054   1.385       .  A
C1053      C1801   1.486       .  S
C1054      H1056   1.082       .  S
N1057      N1058   1.322       .  A
N1057      C1061   1.354       .  A
N1057     Cu1065   2.099       .  S
N1058      C1059   1.338       .  A
N1058     Cu1064   2.061       .  S
C1059      C1060   1.380       .  A
C1059      H1062   1.082       .  S
C1060      C1061   1.392       .  A
C1060      C1808   1.482       .  S
C1061      H1063   1.080       .  S
Cu1064     N1067   2.062       .  S
Cu1065     N1075   2.101       .  S
Cu1066     N1068   2.096       .  S
Cu1066     N1074   2.098       .  S
N1067      N1068   1.319       .  A
N1067      C1071   1.341       .  A
N1068      C1069   1.353       .  A
C1069      C1070   1.394       .  A
C1069      H1072   1.081       .  S
C1070      C1071   1.386       .  A
C1070      C1861   1.491       .  S
C1071      H1073   1.082       .  S
N1074      N1075   1.326       .  A
N1074      C1078   1.346       .  A
N1075      C1076   1.350       .  A
C1076      C1077   1.389       .  A
C1076      H1079   1.081       .  S
C1077      C1078   1.387       .  A
C1077      C1778   1.492       .  S
C1078      H1080   1.081       .  S
N1081      N1082   1.321       .  A
N1081      C1085   1.355       .  A
N1081     Cu1089   2.105       .  S
N1082      C1083   1.338       .  A
N1082     Cu1088   2.051       .  S
C1083      C1084   1.379       .  A
C1083      H1086   1.083       .  S
C1084      C1085   1.393       .  A
C1084      C1758   1.482   1_565  S
C1085      H1087   1.081       .  S
Cu1088     N1091   2.051       .  S
Cu1089     N1099   2.108       .  S
Cu1090     N1092   2.084       .  S
Cu1090     N1098   2.087       .  S
N1091      N1092   1.318       .  A
N1091      C1095   1.339       .  A
N1092      C1093   1.350       .  A
C1093      C1094   1.392       .  A
C1093      H1096   1.082       .  S
C1094      C1095   1.383       .  A
C1094      C1768   1.483       .  S
C1095      H1097   1.083       .  S
N1098      N1099   1.326       .  A
N1098      C1102   1.344       .  A
N1099      C1100   1.351       .  A
C1100      C1101   1.391       .  A
C1100      H1103   1.082       .  S
C1101      C1102   1.385       .  A
C1101      C1781   1.492       .  S
C1102      H1104   1.082       .  S
N1105      N1106   1.321       .  A
N1105      C1109   1.359       .  A
N1105     Cu1113   2.123       .  S
N1106      C1107   1.337       .  A
N1106     Cu1112   2.054       .  S
C1107      C1108   1.380       .  A
C1107      H1110   1.082       .  S
C1108      C1109   1.399       .  A
C1108      C1791   1.492       .  S
C1109      H1111   1.080       .  S
Cu1112     N1115   2.055       .  S
Cu1113     N1123   2.125       .  S
Cu1114     N1116   2.080       .  S
Cu1114     N1122   2.083       .  S
N1115      N1116   1.318       .  A
N1115      C1119   1.341       .  A
N1116      C1117   1.350       .  A
C1117      C1118   1.389       .  A
C1117      H1120   1.081       .  S
C1118      C1119   1.382       .  A
C1118      C1838   1.479       .  S
C1119      H1121   1.081       .  S
N1122      N1123   1.327       .  A
N1122      C1126   1.344       .  A
N1123      C1124   1.353       .  A
C1124      C1125   1.393       .  A
C1124      H1127   1.081       .  S
C1125      C1126   1.383       .  A
C1125      C1748   1.493       .  S
C1126      H1128   1.081       .  S
N1129      N1130   1.321       .  A
N1129      C1133   1.354       .  A
N1129     Cu1137   2.100       .  S
N1130      C1131   1.338       .  A
N1130     Cu1136   2.052       .  S
C1131      C1132   1.379       .  A
C1131      H1134   1.082       .  S
C1132      C1133   1.392       .  A
C1132      C1738   1.480       .  S
C1133      H1135   1.081       .  S
Cu1136     N1139   2.052       .  S
Cu1137     N1147   2.104       .  S
Cu1138     N1140   2.085       .  S
Cu1138     N1146   2.089       .  S
N1139      N1140   1.319       .  A
N1139      C1143   1.340       .  A
N1140      C1141   1.350       .  A
C1141      C1142   1.390       .  A
C1141      H1144   1.082       .  S
C1142      C1143   1.382       .  A
C1142      C1771   1.480       .  S
C1143      H1145   1.082       .  S
N1146      N1147   1.326       .  A
N1146      C1150   1.345       .  A
N1147      C1148   1.350       .  A
C1148      C1149   1.391       .  A
C1148      H1151   1.081       .  S
C1149      C1150   1.386       .  A
C1149      C1751   1.493       .  S
C1150      H1152   1.081       .  S
N1153      N1154   1.321       .  A
N1153      C1157   1.355       .  A
N1153     Cu1161   2.097       .  S
N1154      C1155   1.338       .  A
N1154     Cu1160   2.060       .  S
C1155      C1156   1.381       .  A
C1155      H1158   1.082       .  S
C1156      C1157   1.392       .  A
C1156      C2471   1.483       .  S
C1157      H1159   1.081       .  S
Cu1160     N1163   2.060       .  S
Cu1161     N1171   2.100       .  S
Cu1162     N1164   2.085       .  S
Cu1162     N1170   2.088       .  S
N1163      N1164   1.319       .  A
N1163      C1167   1.340       .  A
N1164      C1165   1.351       .  A
C1165      C1166   1.392       .  A
C1165      H1168   1.081       .  S
C1166      C1167   1.384       .  A
C1166      C1718   1.485       .  S
C1167      H1169   1.082       .  S
N1170      N1171   1.326       .  A
N1170      C1174   1.345       .  A
N1171      C1172   1.348       .  A
C1172      C1173   1.388       .  A
C1172      H1175   1.082       .  S
C1173      C1174   1.386       .  A
C1173      C1728   1.489       .  S
C1174      H1176   1.081       .  S
N1177      N1178   1.320       .  A
N1177      C1181   1.353       .  A
N1177     Cu1185   2.091       .  S
N1178      C1179   1.337       .  A
N1178     Cu1184   2.052       .  S
C1179      C1180   1.380       .  A
C1179      H1182   1.082       .  S
C1180      C1181   1.392       .  A
C1180      C1711   1.480       .  S
C1181      H1183   1.081       .  S
Cu1184     N1187   2.053       .  S
Cu1185     N1195   2.095       .  S
Cu1186     N1188   2.095       .  S
Cu1186     N1194   2.098       .  S
N1187      N1188   1.318       .  A
N1187      C1191   1.339       .  A
N1188      C1189   1.353       .  A
C1189      C1190   1.395       .  A
C1189      H1192   1.081       .  S
C1190      C1191   1.384       .  A
C1190      C1698   1.491       .  S
C1191      H1193   1.080       .  S
N1194      N1195   1.327       .  A
N1194      C1198   1.345       .  A
N1195      C1196   1.349       .  A
C1196      C1197   1.388       .  A
C1196      H1199   1.081       .  S
C1197      C1198   1.386       .  A
C1197      C1731   1.489       .  S
C1198      H1200   1.082       .  S
N1201      N1202   1.322       .  A
N1201      C1205   1.355       .  A
N1201     Cu1209   2.103       .  S
N1202      C1203   1.339       .  A
N1202     Cu1208   2.059       .  S
C1203      C1204   1.381       .  A
C1203      H1206   1.082       .  S
C1204      C1205   1.393       .  A
C1204      C2431   1.486       .  S
C1205      H1207   1.081       .  S
Cu1208     N1211   2.059       .  S
Cu1209     N1219   2.105       .  S
Cu1210     N1212   2.085       .  S
Cu1210     N1218   2.087       .  S
N1211      N1212   1.318       .  A
N1211      C1215   1.340       .  A
N1212      C1213   1.350       .  A
C1213      C1214   1.393       .  A
C1213      H1216   1.081       .  S
C1214      C1215   1.386       .  A
C1214      C1721   1.489       .  S
C1215      H1217   1.082       .  S
N1218      N1219   1.326       .  A
N1218      C1222   1.344       .  A
N1219      C1220   1.351       .  A
C1220      C1221   1.390       .  A
C1220      H1223   1.081       .  S
C1221      C1222   1.385       .  A
C1221      C1688   1.489       .  S
C1222      H1224   1.081       .  S
N1225      N1226   1.321       .  A
N1225      C1229   1.353       .  A
N1225     Cu1233   2.095       .  S
N1226      C1227   1.339       .  A
N1226     Cu1232   2.058       .  S
C1227      C1228   1.380       .  A
C1227      H1230   1.082       .  S
C1228      C1229   1.390       .  A
C1228      C1678   1.479       .  S
C1229      H1231   1.081       .  S
Cu1232     N1235   2.058       .  S
Cu1233     N1243   2.098       .  S
Cu1234     N1236   2.085       .  S
Cu1234     N1242   2.087       .  S
N1235      N1236   1.319       .  A
N1235      C1239   1.341       .  A
N1236      C1237   1.350       .  A
C1237      C1238   1.390       .  A
C1237      H1240   1.082       .  S
C1238      C1239   1.383       .  A
C1238      C1668   1.482       .  S
C1239      H1241   1.082       .  S
N1242      N1243   1.325       .  A
N1242      C1246   1.345       .  A
N1243      C1244   1.349       .  A
C1244      C1245   1.390       .  A
C1244      H1247   1.081       .  S
C1245      C1246   1.386       .  A
C1245      C1691   1.491       .  S
C1246      H1248   1.081       .  S
N1249      N1250   1.321       .  A
N1249      C1253   1.353       .  A
N1249     Cu1257   2.089       .  S
N1250      C1251   1.338       .  A
N1250     Cu1256   2.058       .  S
C1251      C1252   1.381       .  A
C1251      H1254   1.082       .  S
C1252      C1253   1.391       .  A
C1252      C1761   1.481       .  S
C1253      H1255   1.082       .  S
Cu1256     N1259   2.057       .  S
Cu1257     N1267   2.091       .  S
Cu1258     N1260   2.080       .  S
Cu1258     N1266   2.083       .  S
N1259      N1260   1.319       .  A
N1259      C1263   1.340       .  A
N1260      C1261   1.350       .  A
C1261      C1262   1.390       .  A
C1261      H1264   1.082       .  S
C1262      C1263   1.382       .  A
C1262      C1648   1.481       .  S
C1263      H1265   1.082       .  S
N1266      N1267   1.326       .  A
N1266      C1270   1.343       .  A
N1267      C1268   1.348       .  A
C1268      C1269   1.386       .  A
C1268      H1271   1.082       .  S
C1269      C1270   1.383       .  A
C1269      C1661   1.481       .  S
C1270      H1272   1.082       .  S
N1273      N1274   1.321       .  A
N1273      C1277   1.352       .  A
N1273     Cu1281   2.085       .  S
N1274      C1275   1.339       .  A
N1274     Cu1280   2.060       .  S
C1275      C1276   1.379       .  A
C1275      H1278   1.082       .  S
C1276      C1277   1.388       .  A
C1276      C1708   1.476       .  S
C1277      H1279   1.080       .  S
Cu1280     N1283   2.059       .  S
Cu1281     N1291   2.087       .  S
Cu1282     N1284   2.076       .  S
Cu1282     N1290   2.079       .  S
N1283      N1284   1.319       .  A
N1283      C1287   1.340       .  A
N1284      C1285   1.350       .  A
C1285      C1286   1.388       .  A
C1285      H1288   1.082       .  S
C1286      C1287   1.382       .  A
C1286      C1638   1.478       .  S
C1287      H1289   1.082       .  S
N1290      N1291   1.325       .  A
N1290      C1294   1.342       .  A
N1291      C1292   1.348       .  A
C1292      C1293   1.387       .  A
C1292      H1295   1.081       .  S
C1293      C1294   1.384       .  A
C1293      C1658   1.483       .  S
C1294      H1296   1.083       .  S
N1297      N1298   1.321       .  A
N1297      C1301   1.352       .  A
N1297     Cu1305   2.092       .  S
N1298      C1299   1.338       .  A
N1298     Cu1304   2.057       .  S
C1299      C1300   1.382       .  A
C1299      H1302   1.082       .  S
C1300      C1301   1.392       .  A
C1300      C1741   1.484       .  S
C1301      H1303   1.082       .  S
Cu1304     N1307   2.056       .  S
Cu1305     N1315   2.095       .  S
Cu1306     N1308   2.084       .  S
Cu1306     N1314   2.087       .  S
N1307      N1308   1.319       .  A
N1307      C1311   1.340       .  A
N1308      C1309   1.350       .  A
C1309      C1310   1.391       .  A
C1309      H1312   1.082       .  S
C1310      C1311   1.384       .  A
C1310      C1651   1.484       .  S
C1311      H1313   1.082       .  S
N1314      N1315   1.324       .  A
N1314      C1318   1.343       .  A
N1315      C1316   1.350       .  A
C1316      C1317   1.391       .  A
C1316      H1319   1.080       .  S
C1317      C1318   1.387       .  A
C1317      C1631   1.493       .  S
C1318      H1320   1.080       .  S
N1321      N1322   1.320       .  A
N1321      C1325   1.353       .  A
N1321     Cu1329   2.091       .  S
N1322      C1323   1.338       .  A
N1322     Cu1328   2.050       .  S
C1323      C1324   1.379       .  A
C1323      H1326   1.083       .  S
C1324      C1325   1.391       .  A
C1324      C1681   1.478       .  S
C1325      H1327   1.081       .  S
Cu1328     N1331   2.050       .  S
Cu1329     N1339   2.094       .  S
Cu1330     N1332   2.093       .  S
Cu1330     N1338   2.097       .  S
N1331      N1332   1.318       .  A
N1331      C1335   1.337       .  A
N1332      C1333   1.353       .  A
C1333      C1334   1.396       .  A
C1333      H1336   1.081       .  S
C1334      C1335   1.384       .  A
C1334      C1618   1.491       .  S
C1335      H1337   1.081       .  S
N1338      N1339   1.327       .  A
N1338      C1342   1.345       .  A
N1339      C1340   1.349       .  A
C1340      C1341   1.384       .  A
C1340      H1343   1.082       .  S
C1341      C1342   1.384       .  A
C1341      C1628   1.483       .  S
C1342      H1344   1.082       .  S
N1345      N1346   1.320       .  A
N1345      C1349   1.355       .  A
N1345     Cu1353   2.104       .  S
N1346      C1347   1.338       .  A
N1346     Cu1352   2.049       .  S
C1347      C1348   1.380       .  A
C1347      H1350   1.083       .  S
C1348      C1349   1.395       .  A
C1348      C1948   1.485       .  S
C1349      H1351   1.081       .  S
Cu1352     N1355   2.049       .  S
Cu1353     N1363   2.107       .  S
Cu1354     N1356   2.089       .  S
Cu1354     N1362   2.092       .  S
N1355      N1356   1.318       .  A
N1355      C1359   1.337       .  A
N1356      C1357   1.351       .  A
C1357      C1358   1.395       .  A
C1357      H1360   1.081       .  S
C1358      C1359   1.384       .  A
C1358      C1598   1.490       .  S
C1359      H1361   1.082       .  S
N1362      N1363   1.328       .  A
N1362      C1366   1.347       .  A
N1363      C1364   1.349       .  A
C1364      C1365   1.386       .  A
C1364      H1367   1.081       .  S
C1365      C1366   1.383       .  A
C1365      C1608   1.483       .  S
C1366      H1368   1.083       .  S
N1369      N1370   1.320       .  A
N1369      C1373   1.355       .  A
N1369     Cu1377   2.098       .  S
N1370      C1371   1.338       .  A
N1370     Cu1376   2.057       .  S
C1371      C1372   1.381       .  A
C1371      H1374   1.082       .  S
C1372      C1373   1.394       .  A
C1372      C1588   1.487       .  S
C1373      H1375   1.081       .  S
Cu1376     N1379   2.057       .  S
Cu1377     N1387   2.101       .  S
Cu1378     N1380   2.093       .  S
Cu1378     N1386   2.096       .  S
N1379      N1380   1.318       .  A
N1379      C1383   1.339       .  A
N1380      C1381   1.353       .  A
C1381      C1382   1.395       .  A
C1381      H1384   1.081       .  S
C1382      C1383   1.385       .  A
C1382      C1701   1.491       .  S
C1383      H1385   1.082       .  S
N1386      N1387   1.328       .  A
N1386      C1390   1.347       .  A
N1387      C1388   1.349       .  A
C1388      C1389   1.384       .  A
C1388      H1391   1.082       .  S
C1389      C1390   1.383       .  A
C1389      C1611   1.481       .  S
C1390      H1392   1.082       .  S
N1393      N1394   1.322       .  A
N1393      C1397   1.356       .  A
N1393     Cu1401   2.112       .  S
N1394      C1395   1.339       .  A
N1394     Cu1400   2.058       .  S
C1395      C1396   1.381       .  A
C1395      H1398   1.082       .  S
C1396      C1397   1.396       .  A
C1396      C1911   1.490       .  S
C1397      H1399   1.081       .  S
Cu1400     N1403   2.057       .  S
Cu1401     N1411   2.115       .  S
Cu1402     N1404   2.079       .  S
Cu1402     N1410   2.082       .  S
N1403      N1404   1.318       .  A
N1403      C1407   1.340       .  A
N1404      C1405   1.350       .  A
C1405      C1406   1.391       .  A
C1405      H1408   1.081       .  S
C1406      C1407   1.385       .  A
C1406      C1601   1.485       .  S
C1407      H1409   1.080       .  S
N1410      N1411   1.326       .  A
N1410      C1414   1.344       .  A
N1411      C1412   1.352       .  A
C1412      C1413   1.394       .  A
C1412      H1415   1.082       .  S
C1413      C1414   1.385       .  A
C1413      C1578   1.495       .  S
C1414      H1416   1.080       .  S
N1417      N1418   1.321       .  A
N1417      C1421   1.354       .  A
N1417     Cu1425   2.096       .  S
N1418      C1419   1.338       .  A
N1418     Cu1424   2.056       .  S
C1419      C1420   1.379       .  A
C1419      H1422   1.082       .  S
C1420      C1421   1.391       .  A
C1420      C1568   1.479       .  S
C1421      H1423   1.080       .  S
Cu1424     N1427   2.055       .  S
Cu1425     N1435   2.099       .  S
Cu1426     N1428   2.093       .  S
Cu1426     N1434   2.096       .  S
N1427      N1428   1.319       .  A
N1427      C1431   1.340       .  A
N1428      C1429   1.351       .  A
C1429      C1430   1.394       .  A
C1429      H1432   1.082       .  S
C1430      C1431   1.385       .  A
C1430      C1671   1.489       .  S
C1431      H1433   1.081       .  S
N1434      N1435   1.326       .  A
N1434      C1438   1.347       .  A
N1435      C1436   1.349       .  A
C1436      C1437   1.389       .  A
C1436      H1439   1.081       .  S
C1437      C1438   1.388       .  A
C1437      C1581   1.494       .  S
C1438      H1440   1.081       .  S
N1441      N1442   1.320       .  A
N1441      C1445   1.354       .  A
N1441     Cu1449   2.102       .  S
N1442      C1443   1.339       .  A
N1442     Cu1448   2.058       .  S
C1443      C1444   1.382       .  A
C1443      H1446   1.082       .  S
C1444      C1445   1.394       .  A
C1444      C2241   1.488       .  S
C1445      H1447   1.081       .  S
Cu1448     N1451   2.057       .  S
Cu1449     N1459   2.104       .  S
Cu1450     N1452   2.085       .  S
Cu1450     N1458   2.088       .  S
N1451      N1452   1.318       .  A
N1451      C1455   1.339       .  A
N1452      C1453   1.352       .  A
C1453      C1454   1.394       .  A
C1453      H1456   1.081       .  S
C1454      C1455   1.384       .  A
C1454      C1548   1.488       .  S
C1455      H1457   1.083       .  S
N1458      N1459   1.327       .  A
N1458      C1462   1.344       .  A
N1459      C1460   1.351       .  A
C1460      C1461   1.388       .  A
C1460      H1463   1.082       .  S
C1461      C1462   1.384       .  A
C1461      C1561   1.486       .  S
C1462      H1464   1.081       .  S
N1465      N1466   1.321       .  A
N1465      C1469   1.354       .  A
N1465     Cu1473   2.101       .  S
N1466      C1467   1.339       .  A
N1466     Cu1472   2.060       .  S
C1467      C1468   1.382       .  A
C1467      H1470   1.082       .  S
C1468      C1469   1.394       .  A
C1468      C1591   1.487       .  S
C1469      H1471   1.081       .  S
Cu1472     N1475   2.059       .  S
Cu1473     N1483   2.103       .  S
Cu1474     N1476   2.080       .  S
Cu1474     N1482   2.083       .  S
N1475      N1476   1.319       .  A
N1475      C1479   1.340       .  A
N1476      C1477   1.349       .  A
C1477      C1478   1.391       .  A
C1477      H1480   1.081       .  S
C1478      C1479   1.385       .  A
C1478      C1641   1.485       .  S
C1479      H1481   1.082       .  S
N1482      N1483   1.326       .  A
N1482      C1486   1.344       .  A
N1483      C1484   1.350       .  A
C1484      C1485   1.389       .  A
C1484      H1487   1.081       .  S
C1485      C1486   1.384       .  A
C1485      C1558   1.488       .  S
C1486      H1488   1.082       .  S
N1489      N1490   1.323       .  A
N1489      C1493   1.355       .  A
N1489     Cu1497   2.102       .  S
N1490      C1491   1.339       .  A
N1490     Cu1496   2.066       .  S
C1491      C1492   1.379       .  A
C1491      H1494   1.082       .  S
C1492      C1493   1.391       .  A
C1492      C2221   1.481       .  S
C1493      H1495   1.082       .  S
Cu1496     N1499   2.066       .  S
Cu1497     N1507   2.104       .  S
Cu1498     N1500   2.072       .  S
Cu1498     N1506   2.074       .  S
N1499      N1500   1.318       .  A
N1499      C1503   1.342       .  A
N1500      C1501   1.349       .  A
C1501      C1502   1.388       .  A
C1501      H1504   1.081       .  S
C1502      C1503   1.386       .  A
C1502      C1551   1.482       .  S
C1503      H1505   1.082       .  S
N1506      N1507   1.326       .  A
N1506      C1510   1.342       .  A
N1507      C1508   1.351       .  A
C1508      C1509   1.390       .  A
C1508      H1511   1.082       .  S
C1509      C1510   1.381       .  A
C1509      C1538   1.485       .  S
C1510      H1512   1.082       .  S
N1513      N1514   1.321       .  A
N1513      C1517   1.353       .  A
N1513     Cu1521   2.092       .  S
N1514      C1515   1.338       .  A
N1514     Cu1520   2.060       .  S
C1515      C1516   1.380       .  A
C1515      H1518   1.082       .  S
C1516      C1517   1.391       .  A
C1516      C1571   1.480       .  S
C1517      H1519   1.082       .  S
Cu1520     N1523   2.060       .  S
Cu1521     N1531   2.095       .  S
Cu1522     N1524   2.085       .  S
Cu1522     N1530   2.087       .  S
N1523      N1524   1.319       .  A
N1523      C1527   1.341       .  A
N1524      C1525   1.351       .  A
C1525      C1526   1.390       .  A
C1525      H1528   1.082       .  S
C1526      C1527   1.384       .  A
C1526      C1621   1.483       .  S
C1527      H1529   1.081       .  S
N1530      N1531   1.326       .  A
N1530      C1534   1.345       .  A
N1531      C1532   1.348       .  A
C1532      C1533   1.387       .  A
C1532      H1535   1.082       .  S
C1533      C1534   1.386       .  A
C1533      C1541   1.487       .  S
C1534      H1536   1.081       .  S
C1537      C1538   1.405       .  A
C1537      C1542   1.397       .  A
C1537      H1544   1.082       .  S
C1538      C1539   1.407       .  A
C1539      C1540   1.403       .  A
C1539      F1546   1.357       .  S
C1540      C1541   1.407       .  A
C1540      H1545   1.082       .  S
C1541      C1542   1.408       .  A
C1542      F1543   1.357       .  S
C1547      C1548   1.406       .  A
C1547      C1552   1.394       .  A
C1547      H1554   1.083       .  S
C1548      C1549   1.410       .  A
C1549      C1550   1.405       .  A
C1549      F1556   1.356       .  S
C1550      C1551   1.406       .  A
C1550      H1555   1.083       .  S
C1551      C1552   1.404       .  A
C1552      F1553   1.357       .  S
C1557      C1558   1.405       .  A
C1557      C1562   1.398       .  A
C1557      H1564   1.083       .  S
C1558      C1559   1.409       .  A
C1559      C1560   1.405       .  A
C1559      F1566   1.357       .  S
C1560      C1561   1.406       .  A
C1560      H1565   1.083       .  S
C1561      C1562   1.408       .  A
C1562      F1563   1.357       .  S
C1567      C1568   1.406       .  A
C1567      C1572   1.407       .  A
C1567      H1574   1.084       .  S
C1568      C1569   1.405       .  A
C1569      C1570   1.393       .  A
C1569      F1576   1.358       .  S
C1570      C1571   1.403       .  A
C1570      H1575   1.084       .  S
C1571      C1572   1.408       .  A
C1572      F1573   1.357       .  S
C1577      C1578   1.407       .  A
C1577      C1582   1.404       .  A
C1577      H1584   1.082       .  S
C1578      C1579   1.412       .  A
C1579      C1580   1.401       .  A
C1579      F1586   1.356       .  S
C1580      C1581   1.405       .  A
C1580      H1585   1.082       .  S
C1581      C1582   1.410       .  A
C1582      F1583   1.356       .  S
C1587      C1588   1.407       .  A
C1587      C1592   1.410       .  A
C1587      H1594   1.083       .  S
C1588      C1589   1.407       .  A
C1589      C1590   1.393       .  A
C1589      F1596   1.358       .  S
C1590      C1591   1.403       .  A
C1590      H1595   1.084       .  S
C1591      C1592   1.410       .  A
C1592      F1593   1.357       .  S
C1597      C1598   1.406       .  A
C1597      C1602   1.392   1_556  A
C1597      H1604   1.082       .  S
C1598      C1599   1.410       .  A
C1599      C1600   1.406   1_556  A
C1599      F1606   1.356       .  S
C1600      C1601   1.406       .  A
C1600      H1605   1.083       .  S
C1601      C1602   1.406       .  A
C1602      F1603   1.357       .  S
C1607      C1608   1.404       .  A
C1607      C1612   1.401       .  A
C1607      H1614   1.084       .  S
C1608      C1609   1.408       .  A
C1609      C1610   1.403       .  A
C1609      F1616   1.357       .  S
C1610      C1611   1.404       .  A
C1610      H1615   1.084       .  S
C1611      C1612   1.406       .  A
C1612      F1613   1.357       .  S
C1617      C1618   1.407       .  A
C1617      C1622   1.393       .  A
C1617      H1624   1.081       .  S
C1618      C1619   1.411       .  A
C1619      C1620   1.407       .  A
C1619      F1626   1.356       .  S
C1620      C1621   1.406       .  A
C1620      H1625   1.083       .  S
C1621      C1622   1.404       .  A
C1622      F1623   1.358       .  S
C1627      C1628   1.405       .  A
C1627      C1632   1.405       .  A
C1627      H1634   1.083       .  S
C1628      C1629   1.404       .  A
C1629      C1630   1.396       .  A
C1629      F1636   1.357       .  S
C1630      C1631   1.407       .  A
C1630      H1635   1.081       .  S
C1631      C1632   1.412       .  A
C1632      F1633   1.356       .  S
C1637      C1638   1.404       .  A
C1637      C1642   1.404       .  A
C1637      H1644   1.084       .  S
C1638      C1639   1.404       .  A
C1639      C1640   1.394       .  A
C1639      F1646   1.358       .  S
C1640      C1641   1.405       .  A
C1640      H1645   1.083       .  S
C1641      C1642   1.410       .  A
C1642      F1643   1.356       .  S
C1647      C1648   1.403       .  A
C1647      C1652   1.394       .  A
C1647      H1654   1.084       .  S
C1648      C1649   1.408       .  A
C1649      C1650   1.405       .  A
C1649      F1656   1.357       .  S
C1650      C1651   1.407       .  A
C1650      H1655   1.084       .  S
C1651      C1652   1.407       .  A
C1652      F1653   1.357       .  S
C1657      C1658   1.404       .  A
C1657      C1662   1.394       .  A
C1657      H1664   1.083       .  S
C1658      C1659   1.409       .  A
C1659      C1660   1.403       .  A
C1659      F1666   1.357       .  S
C1660      C1661   1.406       .  A
C1660      H1665   1.084       .  S
C1661      C1662   1.406       .  A
C1662      F1663   1.357       .  S
C1667      C1668   1.402       .  A
C1667      C1672   1.394       .  A
C1667      H1674   1.084       .  S
C1668      C1669   1.407       .  A
C1669      C1670   1.405       .  A
C1669      F1676   1.357       .  S
C1670      C1671   1.408       .  A
C1670      H1675   1.083       .  S
C1671      C1672   1.410       .  A
C1672      F1673   1.357       .  S
C1677      C1678   1.406       .  A
C1677      C1682   1.407       .  A
C1677      H1684   1.083       .  S
C1678      C1679   1.405       .  A
C1679      C1680   1.392       .  A
C1679      F1686   1.358       .  S
C1680      C1681   1.402       .  A
C1680      H1685   1.084       .  S
C1681      C1682   1.407       .  A
C1682      F1683   1.357       .  S
C1687      C1688   1.406       .  A
C1687      C1692   1.405       .  A
C1687      H1694   1.083       .  S
C1688      C1689   1.408       .  A
C1689      C1690   1.398       .  A
C1689      F1696   1.357       .  S
C1690      C1691   1.405       .  A
C1690      H1695   1.082       .  S
C1691      C1692   1.410       .  A
C1692      F1693   1.357       .  S
C1697      C1698   1.408       .  A
C1697      C1702   1.408       .  A
C1697      H1704   1.083       .  S
C1698      C1699   1.409       .  A
C1699      C1700   1.393       .  A
C1699      F1706   1.357       .  S
C1700      C1701   1.404       .  A
C1700      H1705   1.083       .  S
C1701      C1702   1.410       .  A
C1702      F1703   1.356       .  S
C1707      C1708   1.405       .  A
C1707      C1712   1.406       .  A
C1707      H1714   1.084       .  S
C1708      C1709   1.404       .  A
C1709      C1710   1.392       .  A
C1709      F1716   1.358       .  S
C1710      C1711   1.404       .  A
C1710      H1715   1.084       .  S
C1711      C1712   1.408       .  A
C1712      F1713   1.357       .  S
C1717      C1718   1.406       .  A
C1717      C1722   1.406   1_556  A
C1717      H1724   1.083       .  S
C1718      C1719   1.407       .  A
C1719      C1720   1.395   1_556  A
C1719      F1726   1.357       .  S
C1720      C1721   1.405       .  A
C1720      H1725   1.083       .  S
C1721      C1722   1.411       .  A
C1722      F1723   1.356       .  S
C1727      C1728   1.407       .  A
C1727      C1732   1.404       .  A
C1727      H1734   1.082       .  S
C1728      C1729   1.409       .  A
C1729      C1730   1.398       .  A
C1729      F1736   1.356       .  S
C1730      C1731   1.405       .  A
C1730      H1735   1.082       .  S
C1731      C1732   1.410       .  A
C1732      F1733   1.357       .  S
C1737      C1738   1.405   1_545  A
C1737      C1742   1.406       .  A
C1737      H1744   1.083       .  S
C1738      C1739   1.406   1_565  A
C1739      C1740   1.393       .  A
C1739      F1746   1.358   1_545  S
C1740      C1741   1.404       .  A
C1740      H1745   1.083       .  S
C1741      C1742   1.409       .  A
C1742      F1743   1.356       .  S
C1747      C1748   1.406       .  A
C1747      C1752   1.406       .  A
C1747      H1754   1.082       .  S
C1748      C1749   1.410       .  A
C1749      C1750   1.400       .  A
C1749      F1756   1.357       .  S
C1750      C1751   1.406       .  A
C1750      H1755   1.082       .  S
C1751      C1752   1.410       .  A
C1752      F1753   1.356       .  S
C1757      C1758   1.407       .  A
C1757      C1762   1.408       .  A
C1757      H1764   1.083       .  S
C1758      C1759   1.407       .  A
C1759      C1760   1.392       .  A
C1759      F1766   1.358       .  S
C1760      C1761   1.402       .  A
C1760      H1765   1.084       .  S
C1761      C1762   1.408       .  A
C1762      F1763   1.357       .  S
C1767      C1768   1.404       .  A
C1767      C1772   1.394       .  A
C1767      H1774   1.083       .  S
C1768      C1769   1.409       .  A
C1769      C1770   1.404       .  A
C1769      F1776   1.356       .  S
C1770      C1771   1.405       .  A
C1770      H1775   1.084       .  S
C1771      C1772   1.406       .  A
C1772      F1773   1.358       .  S
C1777      C1778   1.408       .  A
C1777      C1782   1.406       .  A
C1777      H1784   1.083       .  S
C1778      C1779   1.409       .  A
C1779      C1780   1.399       .  A
C1779      F1786   1.357       .  S
C1780      C1781   1.406       .  A
C1780      H1785   1.082       .  S
C1781      C1782   1.409       .  A
C1782      F1783   1.357       .  S
C1787      C1788   1.401       .  A
C1787      C1792   1.394       .  A
C1787      H1794   1.084       .  S
C1788      C1789   1.409       .  A
C1789      C1790   1.412       .  A
C1789      F1796   1.357       .  S
C1790      C1791   1.409       .  A
C1790      H1795   1.083       .  S
C1791      C1792   1.410       .  A
C1792      F1793   1.357       .  S
C1797      C1798   1.406       .  A
C1797      C1802   1.399       .  A
C1797      H1804   1.082       .  S
C1798      C1799   1.409       .  A
C1799      C1800   1.403       .  A
C1799      F1806   1.357       .  S
C1800      C1801   1.406       .  A
C1800      H1805   1.082       .  S
C1801      C1802   1.407       .  A
C1802      F1803   1.357       .  S
C1807      C1808   1.406       .  A
C1807      C1812   1.409       .  A
C1807      H1814   1.083       .  S
C1808      C1809   1.405       .  A
C1809      C1810   1.393       .  A
C1809      F1816   1.358       .  S
C1810      C1811   1.404       .  A
C1810      H1815   1.083       .  S
C1811      C1812   1.409       .  A
C1812      F1813   1.357       .  S
C1817      C1818   1.406       .  A
C1817      C1822   1.403   1_556  A
C1817      H1824   1.083       .  S
C1818      C1819   1.410       .  A
C1819      C1820   1.397   1_556  A
C1819      F1826   1.357       .  S
C1820      C1821   1.403       .  A
C1820      H1825   1.084       .  S
C1821      C1822   1.408       .  A
C1822      F1823   1.357       .  S
C1827      C1828   1.404       .  A
C1827      C1832   1.399       .  A
C1827      H1834   1.082       .  S
C1828      C1829   1.408       .  A
C1829      C1830   1.403       .  A
C1829      F1836   1.357       .  S
C1830      C1831   1.407       .  A
C1830      H1835   1.082       .  S
C1831      C1832   1.410       .  A
C1832      F1833   1.357       .  S
C1837      C1838   1.403       .  A
C1837      C1842   1.406       .  A
C1837      H1844   1.083       .  S
C1838      C1839   1.403       .  A
C1839      C1840   1.394       .  A
C1839      F1846   1.358       .  S
C1840      C1841   1.408       .  A
C1840      H1845   1.080       .  S
C1841      C1842   1.413       .  A
C1842      F1843   1.355       .  S
C1847      C1848   1.407       .  A
C1847      C1852   1.401       .  A
C1847      H1854   1.082       .  S
C1848      C1849   1.409       .  A
C1849      C1850   1.405       .  A
C1849      F1856   1.356       .  S
C1850      C1851   1.407       .  A
C1850      H1855   1.082       .  S
C1851      C1852   1.408       .  A
C1852      F1853   1.357       .  S
C1857      C1858   1.407       .  A
C1857      C1862   1.409       .  A
C1857      H1864   1.082       .  S
C1858      C1859   1.408       .  A
C1859      C1860   1.396       .  A
C1859      F1866   1.357       .  S
C1860      C1861   1.405       .  A
C1860      H1865   1.083       .  S
C1861      C1862   1.410       .  A
C1862      F1863   1.356       .  S
C1867      C1868   1.401       .  A
C1867      C1872   1.393       .  A
C1867      H1874   1.083       .  S
C1868      C1869   1.407       .  A
C1869      C1870   1.404       .  A
C1869      F1876   1.357       .  S
C1870      C1871   1.406       .  A
C1870      H1875   1.083       .  S
C1871      C1872   1.407       .  A
C1872      F1873   1.357       .  S
C1877      C1878   1.405       .  A
C1877      C1882   1.405       .  A
C1877      H1884   1.083       .  S
C1878      C1879   1.409       .  A
C1879      C1880   1.398       .  A
C1879      F1886   1.357       .  S
C1880      C1881   1.405       .  A
C1880      H1885   1.083       .  S
C1881      C1882   1.412       .  A
C1882      F1883   1.356       .  S
C1887      C1888   1.402       .  A
C1887      C1892   1.394       .  A
C1887      H1894   1.084       .  S
C1888      C1889   1.408       .  A
C1889      C1890   1.408       .  A
C1889      F1896   1.357       .  S
C1890      C1891   1.408       .  A
C1890      H1895   1.083       .  S
C1891      C1892   1.408       .  A
C1892      F1893   1.357       .  S
C1897      C1898   1.403       .  A
C1897      C1902   1.393       .  A
C1897      H1904   1.084       .  S
C1898      C1899   1.409       .  A
C1899      C1900   1.410       .  A
C1899      F1906   1.356       .  S
C1900      C1901   1.409       .  A
C1900      H1905   1.083       .  S
C1901      C1902   1.408       .  A
C1902      F1903   1.357       .  S
C1907      C1908   1.404       .  A
C1907      C1912   1.395       .  A
C1907      H1914   1.083       .  S
C1908      C1909   1.411       .  A
C1909      C1910   1.410       .  A
C1909      F1916   1.356       .  S
C1910      C1911   1.407       .  A
C1910      H1915   1.083       .  S
C1911      C1912   1.408       .  A
C1912      F1913   1.358       .  S
C1917      C1918   1.408       .  A
C1917      C1922   1.398       .  A
C1917      H1924   1.082       .  S
C1918      C1919   1.412       .  A
C1919      C1920   1.406       .  A
C1919      F1926   1.356       .  S
C1920      C1921   1.406       .  A
C1920      H1925   1.084       .  S
C1921      C1922   1.408       .  A
C1922      F1923   1.357       .  S
C1927      C1928   1.408       .  A
C1927      C1932   1.407       .  A
C1927      H1934   1.082       .  S
C1928      C1929   1.407       .  A
C1929      C1930   1.393       .  A
C1929      F1936   1.357       .  S
C1930      C1931   1.404       .  A
C1930      H1935   1.082       .  S
C1931      C1932   1.409       .  A
C1932      F1933   1.357       .  S
C1937      C1938   1.403       .  A
C1937      C1942   1.394       .  A
C1937      H1944   1.084       .  S
C1938      C1939   1.409       .  A
C1939      C1940   1.407       .  A
C1939      F1946   1.357       .  S
C1940      C1941   1.405       .  A
C1940      H1945   1.084       .  S
C1941      C1942   1.405       .  A
C1942      F1943   1.358       .  S
C1947      C1948   1.404       .  A
C1947      C1952   1.394       .  A
C1947      H1954   1.084       .  S
C1948      C1949   1.408       .  A
C1949      C1950   1.409       .  A
C1949      F1956   1.357       .  S
C1950      C1951   1.408       .  A
C1950      H1955   1.083       .  S
C1951      C1952   1.406       .  A
C1952      F1953   1.358       .  S
C1957      C1958   1.408       .  A
C1957      C1962   1.394   1_556  A
C1957      H1964   1.079       .  S
C1958      C1959   1.412       .  A
C1959      C1960   1.407   1_556  A
C1959      F1966   1.356       .  S
C1960      C1961   1.407       .  A
C1960      H1965   1.082       .  S
C1961      C1962   1.406       .  A
C1962      F1963   1.357       .  S
C1967      C1968   1.405       .  A
C1967      C1972   1.400       .  A
C1967      H1974   1.082       .  S
C1968      C1969   1.408       .  A
C1969      C1970   1.402       .  A
C1969      F1976   1.357       .  S
C1970      C1971   1.407       .  A
C1970      H1975   1.081       .  S
C1971      C1972   1.409       .  A
C1972      F1973   1.357       .  S
C1977      C1978   1.405       .  A
C1977      C1982   1.404       .  A
C1977      H1984   1.083       .  S
C1978      C1979   1.408       .  A
C1979      C1980   1.399       .  A
C1979      F1986   1.358       .  S
C1980      C1981   1.401       .  A
C1980      H1985   1.084       .  S
C1981      C1982   1.405       .  A
C1982      F1983   1.357       .  S
C1987      C1988   1.404       .  A
C1987      C1992   1.406       .  A
C1987      H1994   1.083       .  S
C1988      C1989   1.407       .  A
C1989      C1990   1.401       .  A
C1989      F1996   1.357       .  S
C1990      C1991   1.409       .  A
C1990      H1995   1.082       .  S
C1991      C1992   1.413       .  A
C1992      F1993   1.356       .  S
C1997      C1998   1.404       .  A
C1997      C2002   1.395       .  A
C1997      H2004   1.084       .  S
C1998      C1999   1.409       .  A
C1999      C2000   1.407       .  A
C1999      F2006   1.357       .  S
C2000      C2001   1.406       .  A
C2000      H2005   1.083       .  S
C2001      C2002   1.406       .  A
C2002      F2003   1.358       .  S
C2007      C2008   1.407       .  A
C2007      C2012   1.404   1_556  A
C2007      H2014   1.083       .  S
C2008      C2009   1.409       .  A
C2009      C2010   1.397   1_556  A
C2009      F2016   1.357       .  S
C2010      C2011   1.406       .  A
C2010      H2015   1.082       .  S
C2011      C2012   1.409       .  A
C2012      F2013   1.356       .  S
C2017      C2018   1.406       .  A
C2017      C2022   1.404       .  A
C2017      H2024   1.083       .  S
C2018      C2019   1.410       .  A
C2019      C2020   1.399       .  A
C2019      F2026   1.356       .  S
C2020      C2021   1.405       .  A
C2020      H2025   1.083       .  S
C2021      C2022   1.410       .  A
C2022      F2023   1.357       .  S
C2027      C2028   1.403       .  A
C2027      C2032   1.391       .  A
C2027      H2034   1.084       .  S
C2028      C2029   1.409       .  A
C2029      C2030   1.411       .  A
C2029      F2036   1.357       .  S
C2030      C2031   1.408       .  A
C2030      H2035   1.083       .  S
C2031      C2032   1.408       .  A
C2032      F2033   1.357       .  S
C2037      C2038   1.406       .  A
C2037      C2042   1.397       .  A
C2037      H2044   1.083       .  S
C2038      C2039   1.408       .  A
C2039      C2040   1.401       .  A
C2039      F2046   1.356       .  S
C2040      C2041   1.405       .  A
C2040      H2045   1.083       .  S
C2041      C2042   1.408       .  A
C2042      F2043   1.357       .  S
C2047      C2048   1.404       .  A
C2047      C2052   1.401       .  A
C2047      H2054   1.086       .  S
C2048      C2049   1.408       .  A
C2049      C2050   1.393       .  A
C2049      F2056   1.357       .  S
C2050      C2051   1.403       .  A
C2050      H2055   1.091       .  S
C2051      C2052   1.410       .  A
C2052      F2053   1.356       .  S
C2057      C2058   1.403       .  A
C2057      C2062   1.390       .  A
C2057      H2064   1.084       .  S
C2058      C2059   1.410       .  A
C2059      C2060   1.409       .  A
C2059      F2066   1.357       .  S
C2060      C2061   1.406       .  A
C2060      H2065   1.083       .  S
C2061      C2062   1.402       .  A
C2062      F2063   1.358       .  S
C2067      C2068   1.408       .  A
C2067      C2072   1.403       .  A
C2067      H2074   1.082       .  S
C2068      C2069   1.410       .  A
C2069      C2070   1.399       .  A
C2069      F2076   1.356       .  S
C2070      C2071   1.404       .  A
C2070      H2075   1.083       .  S
C2071      C2072   1.406       .  A
C2072      F2073   1.357       .  S
C2077      C2078   1.406       .  A
C2077      C2082   1.394   1_655  A
C2077      H2084   1.083       .  S
C2078      C2079   1.411       .  A
C2079      C2080   1.410   1_655  A
C2079      F2086   1.356       .  S
C2080      C2081   1.406       .  A
C2080      H2085   1.083       .  S
C2081      C2082   1.405       .  A
C2082      F2083   1.358       .  S
C2087      C2088   1.401       .  A
C2087      C2092   1.392       .  A
C2087      H2094   1.084       .  S
C2088      C2089   1.409       .  A
C2089      C2090   1.407       .  A
C2089      F2096   1.357       .  S
C2090      C2091   1.407       .  A
C2090      H2095   1.084       .  S
C2091      C2092   1.407       .  A
C2092      F2093   1.357       .  S
C2097      C2098   1.407       .  A
C2097      C2102   1.398       .  A
C2097      H2104   1.082       .  S
C2098      C2099   1.410       .  A
C2099      C2100   1.405       .  A
C2099      F2106   1.356       .  S
C2100      C2101   1.407       .  A
C2100      H2105   1.082       .  S
C2101      C2102   1.407       .  A
C2102      F2103   1.357       .  S
C2107      C2108   1.405       .  A
C2107      C2112   1.396   1_655  A
C2107      H2114   1.083       .  S
C2108      C2109   1.410       .  A
C2109      C2110   1.407   1_655  A
C2109      F2116   1.356       .  S
C2110      C2111   1.405       .  A
C2110      H2115   1.083       .  S
C2111      C2112   1.405       .  A
C2112      F2113   1.358       .  S
C2117      C2118   1.407       .  A
C2117      C2122   1.404       .  A
C2117      H2124   1.082       .  S
C2118      C2119   1.408       .  A
C2119      C2120   1.397       .  A
C2119      F2126   1.357       .  S
C2120      C2121   1.404       .  A
C2120      H2125   1.082       .  S
C2121      C2122   1.408       .  A
C2122      F2123   1.357       .  S
C2127      C2128   1.404       .  A
C2127      C2132   1.407       .  A
C2127      H2134   1.083       .  S
C2128      C2129   1.404       .  A
C2129      C2130   1.396       .  A
C2129      F2136   1.358       .  S
C2130      C2131   1.406       .  A
C2130      H2135   1.082       .  S
C2131      C2132   1.412       .  A
C2132      F2133   1.356       .  S
C2137      C2138   1.407       .  A
C2137      C2142   1.405       .  A
C2137      H2144   1.082       .  S
C2138      C2139   1.408       .  A
C2139      C2140   1.402       .  A
C2139      F2146   1.357       .  S
C2140      C2141   1.407       .  A
C2140      H2145   1.082       .  S
C2141      C2142   1.410       .  A
C2142      F2143   1.357       .  S
C2147      C2148   1.404       .  A
C2147      C2152   1.392       .  A
C2147      H2154   1.083       .  S
C2148      C2149   1.411       .  A
C2149      C2150   1.405       .  A
C2149      F2156   1.356       .  S
C2150      C2151   1.404       .  A
C2150      H2155   1.083       .  S
C2151      C2152   1.405       .  A
C2152      F2153   1.358       .  S
C2157      C2158   1.407       .  A
C2157      C2162   1.407       .  A
C2157      H2164   1.083       .  S
C2158      C2159   1.406       .  A
C2159      C2160   1.393       .  A
C2159      F2166   1.357       .  S
C2160      C2161   1.403       .  A
C2160      H2165   1.084       .  S
C2161      C2162   1.409       .  A
C2162      F2163   1.357       .  S
C2167      C2168   1.405       .  A
C2167      C2172   1.404       .  A
C2167      H2174   1.082       .  S
C2168      C2169   1.406       .  A
C2169      C2170   1.396       .  A
C2169      F2176   1.357       .  S
C2170      C2171   1.405       .  A
C2170      H2175   1.081       .  S
C2171      C2172   1.409       .  A
C2172      F2173   1.357       .  S
C2177      C2178   1.406       .  A
C2177      C2182   1.406   1_556  A
C2177      H2184   1.082       .  S
C2178      C2179   1.405       .  A
C2179      C2180   1.393   1_556  A
C2179      F2186   1.357       .  S
C2180      C2181   1.408       .  A
C2180      H2185   1.079       .  S
C2181      C2182   1.412       .  A
C2182      F2183   1.356       .  S
C2187      C2188   1.407       .  A
C2187      C2192   1.407       .  A
C2187      H2194   1.083       .  S
C2188      C2189   1.410       .  A
C2189      C2190   1.395       .  A
C2189      F2196   1.357       .  S
C2190      C2191   1.402       .  A
C2190      H2195   1.084       .  S
C2191      C2192   1.408       .  A
C2192      F2193   1.357       .  S
C2197      C2198   1.406       .  A
C2197      C2202   1.407       .  A
C2197      H2204   1.084       .  S
C2198      C2199   1.404       .  A
C2199      C2200   1.393       .  A
C2199      F2206   1.358       .  S
C2200      C2201   1.404       .  A
C2200      H2205   1.084       .  S
C2201      C2202   1.410       .  A
C2202      F2203   1.357       .  S
C2207      C2208   1.403       .  A
C2207      C2212   1.401       .  A
C2207      H2214   1.083       .  S
C2208      C2209   1.406       .  A
C2209      C2210   1.403       .  A
C2209      F2216   1.357       .  S
C2210      C2211   1.406       .  A
C2210      H2215   1.083       .  S
C2211      C2212   1.408       .  A
C2212      F2213   1.357       .  S
C2217      C2218   1.408       .  A
C2217      C2222   1.409   1_655  A
C2217      H2224   1.083       .  S
C2218      C2219   1.407       .  A
C2219      C2220   1.393   1_655  A
C2219      F2226   1.358       .  S
C2220      C2221   1.401       .  A
C2220      H2225   1.084       .  S
C2221      C2222   1.408       .  A
C2222      F2223   1.357       .  S
C2227      C2228   1.408       .  A
C2227      C2232   1.404       .  A
C2227      H2234   1.082       .  S
C2228      C2229   1.409       .  A
C2229      C2230   1.396       .  A
C2229      F2236   1.356       .  S
C2230      C2231   1.404       .  A
C2230      H2235   1.082       .  S
C2231      C2232   1.408       .  A
C2232      F2233   1.357       .  S
C2237      C2238   1.402       .  A
C2237      C2242   1.395   1_655  A
C2237      H2244   1.084       .  S
C2238      C2239   1.407       .  A
C2239      C2240   1.409   1_655  A
C2239      F2246   1.357       .  S
C2240      C2241   1.408       .  A
C2240      H2245   1.083       .  S
C2241      C2242   1.408       .  A
C2242      F2243   1.358       .  S
C2247      C2248   1.409       .  A
C2247      C2252   1.408       .  A
C2247      H2254   1.083       .  S
C2248      C2249   1.409       .  A
C2249      C2250   1.392       .  A
C2249      F2256   1.357       .  S
C2250      C2251   1.401       .  A
C2250      H2255   1.083       .  S
C2251      C2252   1.407       .  A
C2252      F2253   1.357       .  S
C2257      C2258   1.405       .  A
C2257      C2262   1.404       .  A
C2257      H2264   1.083       .  S
C2258      C2259   1.405       .  A
C2259      C2260   1.399       .  A
C2259      F2266   1.357       .  S
C2260      C2261   1.408       .  A
C2260      H2265   1.082       .  S
C2261      C2262   1.412       .  A
C2262      F2263   1.356       .  S
C2267      C2268   1.403       .  A
C2267      C2272   1.405       .  A
C2267      H2274   1.084       .  S
C2268      C2269   1.402       .  A
C2269      C2270   1.393       .  A
C2269      F2276   1.358       .  S
C2270      C2271   1.405       .  A
C2270      H2275   1.083       .  S
C2271      C2272   1.411       .  A
C2272      F2273   1.356       .  S
C2277      C2278   1.402       .  A
C2277      C2282   1.391       .  A
C2277      H2284   1.084       .  S
C2278      C2279   1.408       .  A
C2279      C2280   1.409       .  A
C2279      F2286   1.357       .  S
C2280      C2281   1.407       .  A
C2280      H2285   1.083       .  S
C2281      C2282   1.407       .  A
C2282      F2283   1.358       .  S
C2287      C2288   1.403       .  A
C2287      C2292   1.395       .  A
C2287      H2294   1.082       .  S
C2288      C2289   1.409       .  A
C2289      C2290   1.403       .  A
C2289      F2296   1.357       .  S
C2290      C2291   1.405       .  A
C2290      H2295   1.082       .  S
C2291      C2292   1.409       .  A
C2292      F2293   1.357       .  S
C2297      C2298   1.403       .  A
C2297      C2302   1.395       .  A
C2297      H2304   1.084       .  S
C2298      C2299   1.409       .  A
C2299      C2300   1.409       .  A
C2299      F2306   1.357       .  S
C2300      C2301   1.407       .  A
C2300      H2305   1.083       .  S
C2301      C2302   1.405       .  A
C2302      F2303   1.358       .  S
C2307      C2308   1.409       .  A
C2307      C2312   1.410       .  A
C2307      H2314   1.083       .  S
C2308      C2309   1.406       .  A
C2309      C2310   1.395       .  A
C2309      F2316   1.358       .  S
C2310      C2311   1.404       .  A
C2310      H2315   1.084       .  S
C2311      C2312   1.408       .  A
C2312      F2313   1.357       .  S
C2317      C2318   1.405       .  A
C2317      C2322   1.393   1_556  A
C2317      H2324   1.082       .  S
C2318      C2319   1.410       .  A
C2319      C2320   1.406   1_556  A
C2319      F2326   1.357       .  S
C2320      C2321   1.407       .  A
C2320      H2325   1.082       .  S
C2321      C2322   1.405       .  A
C2322      F2323   1.357       .  S
C2327      C2328   1.407       .  A
C2327      C2332   1.399       .  A
C2327      H2334   1.082       .  S
C2328      C2329   1.410       .  A
C2329      C2330   1.406       .  A
C2329      F2336   1.357       .  S
C2330      C2331   1.407       .  A
C2330      H2335   1.083       .  S
C2331      C2332   1.407       .  A
C2332      F2333   1.357       .  S
C2337      C2338   1.405       .  A
C2337      C2342   1.397       .  A
C2337      H2344   1.084       .  S
C2338      C2339   1.408       .  A
C2339      C2340   1.403       .  A
C2339      F2346   1.357       .  S
C2340      C2341   1.406       .  A
C2340      H2345   1.084       .  S
C2341      C2342   1.407       .  A
C2342      F2343   1.357       .  S
C2347      C2348   1.407   1_545  A
C2347      C2352   1.410       .  A
C2347      H2354   1.083   1_545  S
C2348      C2349   1.406   1_565  A
C2349      C2350   1.393       .  A
C2349      F2356   1.358   1_545  S
C2350      C2351   1.403       .  A
C2350      H2355   1.083       .  S
C2351      C2352   1.410       .  A
C2352      F2353   1.357       .  S
C2357      C2358   1.405       .  A
C2357      C2362   1.397       .  A
C2357      H2364   1.083       .  S
C2358      C2359   1.409       .  A
C2359      C2360   1.404       .  A
C2359      F2366   1.357       .  S
C2360      C2361   1.407       .  A
C2360      H2365   1.083       .  S
C2361      C2362   1.409       .  A
C2362      F2363   1.357       .  S
C2367      C2368   1.404       .  A
C2367      C2372   1.393       .  A
C2367      H2374   1.082       .  S
C2368      C2369   1.410       .  A
C2369      C2370   1.409       .  A
C2369      F2376   1.357       .  S
C2370      C2371   1.408       .  A
C2370      H2375   1.083       .  S
C2371      C2372   1.407       .  A
C2372      F2373   1.357       .  S
C2377      C2378   1.407       .  A
C2377      C2382   1.408       .  A
C2377      H2384   1.083       .  S
C2378      C2379   1.407       .  A
C2379      C2380   1.396       .  A
C2379      F2386   1.358       .  S
C2380      C2381   1.404   1_545  A
C2380      H2385   1.084   1_545  S
C2381      C2382   1.407   1_565  A
C2382      F2383   1.357   1_545  S
C2387      C2388   1.407       .  A
C2387      C2392   1.405       .  A
C2387      H2394   1.082       .  S
C2388      C2389   1.408       .  A
C2389      C2390   1.395       .  A
C2389      F2396   1.357       .  S
C2390      C2391   1.404       .  A
C2390      H2395   1.082       .  S
C2391      C2392   1.408       .  A
C2392      F2393   1.357       .  S
C2397      C2398   1.407       .  A
C2397      C2402   1.404       .  A
C2397      H2404   1.082       .  S
C2398      C2399   1.412       .  A
C2399      C2400   1.402       .  A
C2399      F2406   1.356       .  S
C2400      C2401   1.405       .  A
C2400      H2405   1.083       .  S
C2401      C2402   1.409       .  A
C2402      F2403   1.357       .  S
C2407      C2408   1.406       .  A
C2407      C2412   1.404       .  A
C2407      H2414   1.084       .  S
C2408      C2409   1.407       .  A
C2409      C2410   1.394       .  A
C2409      F2416   1.357       .  S
C2410      C2411   1.403       .  A
C2410      H2415   1.084       .  S
C2411      C2412   1.409       .  A
C2412      F2413   1.357       .  S
C2417      C2418   1.406       .  A
C2417      C2422   1.394       .  A
C2417      H2424   1.083       .  S
C2418      C2419   1.411       .  A
C2419      C2420   1.406       .  A
C2419      F2426   1.356       .  S
C2420      C2421   1.403       .  A
C2420      H2425   1.083       .  S
C2421      C2422   1.402       .  A
C2422      F2423   1.358       .  S
C2427      C2428   1.403       .  A
C2427      C2432   1.394       .  A
C2427      H2434   1.083       .  S
C2428      C2429   1.409       .  A
C2429      C2430   1.410       .  A
C2429      F2436   1.357       .  S
C2430      C2431   1.407       .  A
C2430      H2435   1.083       .  S
C2431      C2432   1.406       .  A
C2432      F2433   1.358       .  S
C2437      C2438   1.406       .  A
C2437      C2442   1.398       .  A
C2437      H2444   1.082       .  S
C2438      C2439   1.410       .  A
C2439      C2440   1.406       .  A
C2439      F2446   1.356       .  S
C2440      C2441   1.408       .  A
C2440      H2445   1.083       .  S
C2441      C2442   1.408       .  A
C2442      F2443   1.357       .  S
C2447      C2448   1.404       .  A
C2447      C2452   1.394       .  A
C2447      H2454   1.082       .  S
C2448      C2449   1.411       .  A
C2449      C2450   1.408       .  A
C2449      F2456   1.357       .  S
C2450      C2451   1.407       .  A
C2450      H2455   1.083       .  S
C2451      C2452   1.407       .  A
C2452      F2453   1.357       .  S
C2457      C2458   1.403       .  A
C2457      C2462   1.396       .  A
C2457      H2464   1.084       .  S
C2458      C2459   1.409       .  A
C2459      C2460   1.409       .  A
C2459      F2466   1.357       .  S
C2460      C2461   1.407       .  A
C2460      H2465   1.083       .  S
C2461      C2462   1.408       .  A
C2462      F2463   1.358       .  S
C2467      C2468   1.402       .  A
C2467      C2472   1.392       .  A
C2467      H2474   1.084       .  S
C2468      C2469   1.408       .  A
C2469      C2470   1.410       .  A
C2469      F2476   1.357       .  S
C2470      C2471   1.407       .  A
C2470      H2475   1.083       .  S
C2471      C2472   1.405       .  A
C2472      F2473   1.358       .  S
C2477      C2478   1.404       .  A
C2477      C2482   1.395   1_556  A
C2477      H2484   1.083       .  S
C2478      C2479   1.408       .  A
C2479      C2480   1.407   1_556  A
C2479      F2486   1.357       .  S
C2480      C2481   1.408       .  A
C2480      H2485   1.083       .  S
C2481      C2482   1.408       .  A
C2482      F2483   1.357       .  S
C2487      C2488   1.407       .  A
C2487      C2492   1.405       .  A
C2487      H2494   1.082       .  S
C2488      C2489   1.407       .  A
C2489      C2490   1.401       .  A
C2489      F2496   1.357       .  S
C2490      C2491   1.409       .  A
C2490      H2495   1.081       .  S
C2491      C2492   1.410       .  A
C2492      F2493   1.356       .  S
