geometry optimzed in LAMMPS
_audit_creation_date              2020-12-01 
_audit_creation_method            'lammps2cif' 
_symmetry_space_group_name_H-M    'P1' 
_symmetry_Int_Tables_number       1 
_symmetry_cell_setting            triclinic 
loop_ 
_symmetry_equiv_pos_as_xyz 
  x,y,z 
_cell_length_a                    41.50697931 
_cell_length_b                    41.31463028110925 
_cell_length_c                    31.30584626687258 
_cell_angle_alpha                 89.85999182520446 
_cell_angle_beta                  90.17243969745327 
_cell_angle_gamma                 90.03318845789362 
loop_ 
_atom_site_label 
_atom_site_type_symbol 
_atom_site_fract_x 
_atom_site_fract_y 
_atom_site_fract_z 
_atom_site_charge 
Zr1        Zr  0.99693883  0.04630573  0.18869498     2.17500
O2          O  0.98963064  0.09591757  0.14725926    -0.52100
O3          O  0.99714004  0.02960356  0.11299963    -0.75300
O4          O  0.04658049  0.07825573  0.18309542    -0.82100
O5          O  0.90904571  0.04503330  0.22672881    -0.83800
O6          O  0.08723625  0.04844652  0.21174787    -0.79500
O7          O  0.94651766  0.07699473  0.19495770    -0.91100
O8          O  0.99396204  0.97493686  0.10789449    -0.77100
O9          O  0.03365317  0.00217211  0.18403195    -0.86600
O10         O  0.96452999  0.99866829  0.18312621    -0.86200
O11         O  0.02814106  0.04815967  0.25404067    -0.73000
O12         O  0.96590450  0.04278287  0.25299395    -0.85100
Zr13       Zr  0.00325944  0.95194381  0.30877638     2.26400
Zr14       Zr  0.06418634  0.00305737  0.24918404     2.06300
Zr15       Zr  0.93458901  0.99472299  0.24813316     2.10000
Zr16       Zr  0.00131469  0.95460444  0.17945095     1.78800
O17         O  0.89150022  0.00672055  0.29828123    -0.93900
O18         O  0.04888888  0.93808294  0.13956694    -0.41700
O19         O  0.97135989  0.95037978  0.24427240    -0.78400
O20         O  0.03323292  0.95438494  0.24277746    -0.97100
O21         O  0.03429243  0.00023461  0.31430761    -0.90400
O22         O  0.96533816  0.99523589  0.31318411    -0.93200
C23         C  0.99495556  0.00321663  0.09128192     1.00500
C24         C  0.91789170  0.07172755  0.20911503     1.13500
C25         C  0.07637720  0.07361421  0.19255756     1.04300
O26         O  0.11115946  0.98936027  0.20656620    -0.95400
O27         O  0.09328429  0.95696189  0.27765864    -0.91100
O28         O  0.05690721  0.92660801  0.31451505    -0.84300
C29         C  0.08543866  0.93208048  0.29992429     1.10900
O30         O  0.98925104  0.10207767  0.31247453    -0.97300
Zr31       Zr  0.99647813  0.04360190  0.31735278     1.88900
O32         O  0.00108993  0.96816701  0.38469520    -0.74000
O33         O  0.09725992  0.02805241  0.30430721    -0.53300
O34         O  0.04190804  0.07194204  0.34970680    -0.97900
O35         O  0.94725194  0.06283404  0.35130263    -0.55100
O36         O  0.99955736  0.02296098  0.38892640    -0.74500
C37         C  0.00030547  0.99486067  0.40598807     0.97800
O38         O  0.01061448  0.89872237  0.34157346    -0.63300
O39         O  0.89583891  0.97654455  0.19456352    -0.58100
O40         O  0.95376352  0.91957893  0.31237232    -0.94800
O41         O  0.91385494  0.94359715  0.27365894    -0.93200
O42         O  0.95595943  0.92302088  0.15310186    -0.93600
O43         O  0.01054459  0.89642095  0.18250229    -0.92400
C44         C  0.92506867  0.92059379  0.29683044     1.16700
H45         H  0.95030728  0.99968044  0.15870050     0.32600
H46         H  0.04659047  0.93558931  0.23871562     0.43500
H47         H  0.95138517  0.99259302  0.33758700     0.37000
H48         H  0.03957811  0.06829446  0.25776683     0.33500
H49         H  0.04033152  0.92731900  0.11367730     0.25300
H50         H  0.11967618  0.02328968  0.29563507     0.31200
H51         H  0.05179194  0.05615521  0.36964815     0.37100
H52         H  0.93821658  0.93881232  0.14970501     0.31600
H53         H  0.87495808  0.97576653  0.20972351     0.30500
H54         H  0.87215430  0.99611229  0.28612261     0.32100
H55         H  0.94044935  0.04523910  0.37081544     0.31100
H56         H  0.00927220  0.89091013  0.21326024     0.35100
H57         H  0.99543544  0.89779818  0.36583725     0.27800
H58         H  0.00557608  0.09487469  0.12384854     0.32100
H59         H  0.99211928  0.11032975  0.34191236     0.34900
H60         H  0.89355260  0.99483991  0.17430817     0.27500
H61         H  0.00231519  0.88276779  0.32061198     0.40400
H62         H  0.10243057  0.97668179  0.18236862     0.30500
H63         H  0.05842822  0.95849401  0.12880500     0.38100
H64         H  0.93089814  0.06272393  0.32820600     0.29900
H65         H  0.09485066  0.05162256  0.29948214     0.30000
H66         H  0.99734345  0.11366909  0.16585112     0.30300
Zr67       Zr  0.99960990  0.04654593  0.68572915     2.17500
O68         O  0.99407189  0.09741982  0.64657131    -0.52100
O69         O  0.99873260  0.02666292  0.61153339    -0.75300
O70         O  0.05134524  0.07487543  0.67673832    -0.82100
O71         O  0.91209733  0.05335134  0.72636622    -0.83800
O72         O  0.09036191  0.04381008  0.70678386    -0.79500
O73         O  0.95006798  0.07862842  0.68603643    -0.91100
O74         O  0.99544118  0.97190907  0.61008305    -0.77100
O75         O  0.03160222  0.99891377  0.68105089    -0.86600
O76         O  0.96294653  0.00200083  0.68634332    -0.86200
O77         O  0.03279626  0.04788769  0.74912143    -0.73000
O78         O  0.97121335  0.04905684  0.75243335    -0.85100
Zr79       Zr  0.00214326  0.95624593  0.81184357     2.26400
Zr80       Zr  0.06456862  0.99974197  0.74387022     2.06300
Zr81       Zr  0.93559582  0.00382178  0.75368166     2.10000
Zr82       Zr  0.99502124  0.95433193  0.68331569     1.78800
O83         O  0.89929478  0.02514921  0.80773435    -0.93900
O84         O  0.03851549  0.92413329  0.64963017    -0.41700
O85         O  0.96763186  0.95603689  0.75006775    -0.78400
O86         O  0.02967047  0.95344012  0.74404321    -0.97100
O87         O  0.03764182  0.00149000  0.81152942    -0.90400
O88         O  0.96889992  0.00323001  0.81618846    -0.93200
C89         C  0.99738377  0.99944153  0.59156643     1.00500
C90         C  0.92187534  0.07680787  0.70281406     1.13500
C91         C  0.08090617  0.06919930  0.68695443     1.04300
O92         O  0.10211558  0.97554348  0.69352512    -0.95400
O93         O  0.09128902  0.95501977  0.77746150    -0.91100
O94         O  0.05370566  0.92635190  0.81430434    -0.84300
C95         C  0.08240464  0.93051447  0.79952836     1.10900
O96         O  0.00847923  0.10727891  0.81255259    -0.97300
Zr97       Zr  0.00440251  0.04842422  0.81493577     1.88900
O98         O  0.00269251  0.97572506  0.88636273    -0.74000
O99         O  0.10762819  0.02094982  0.78888193    -0.53300
O100        O  0.05583310  0.06830924  0.84197047    -0.97900
O101        O  0.95855763  0.07666921  0.84598648    -0.55100
O102        O  0.00457622  0.03060951  0.88805212    -0.74500
C103        C  0.00356550  0.00296795  0.90637766     0.97800
O104        O  0.99786465  0.90628050  0.85326145    -0.63300
O105        O  0.89126182  0.98495689  0.70893081    -0.58100
O106        O  0.95136489  0.92626820  0.81638572    -0.94800
O107        O  0.91175921  0.95650194  0.78629698    -0.93200
O108        O  0.94334166  0.93367765  0.65829096    -0.93600
O109        O  0.99119605  0.89568050  0.68978591    -0.92400
C110        C  0.92168108  0.93136253  0.80644423     1.16700
H111        H  0.94805571  0.00334714  0.66265193     0.32600
H112        H  0.04134855  0.93349334  0.74024762     0.43500
H113        H  0.95569676  0.00282625  0.84153347     0.37000
H114        H  0.04576721  0.06715736  0.75144441     0.33500
H115        H  0.02958528  0.91674459  0.62194963     0.25300
H116        H  0.12756576  0.01738233  0.77225093     0.31200
H117        H  0.06637357  0.04920562  0.85505538     0.37100
H118        H  0.93795376  0.94685856  0.63281227     0.31600
H119        H  0.87157929  0.99242131  0.72372309     0.30500
H120        H  0.87838772  0.02794093  0.79287924     0.32100
H121        H  0.94697371  0.06009259  0.86289431     0.31100
H122        H  0.98167583  0.89197602  0.71835519     0.35100
H123        H  0.00251935  0.88856121  0.83294848     0.27800
H124        H  0.00857992  0.09562137  0.62164890     0.32100
H125        H  0.01168627  0.11411212  0.84257663     0.34900
H126        H  0.89221593  0.99831757  0.68268713     0.27500
H127        H  0.01626994  0.90634112  0.87342850     0.40400
H128        H  0.09784547  0.98656942  0.66597085     0.30500
H129        H  0.05468673  0.94072585  0.64181827     0.38100
H130        H  0.94406511  0.08127775  0.82153235     0.29900
H131        H  0.10463434  0.04472359  0.78869042     0.30000
H132        H  0.00396581  0.11421468  0.66494845     0.30300
Zr133      Zr  0.29631870  0.25119837  0.06181282     2.17500
O134        O  0.34524692  0.25849464  0.01980874    -0.52100
O135        O  0.27785941  0.25200072  0.98687101    -0.75300
O136        O  0.32519478  0.19916017  0.05394393    -0.82100
O137        O  0.30199444  0.33955403  0.10283626    -0.83800
O138        O  0.29328621  0.15967975  0.08112603    -0.79500
O139        O  0.32820376  0.30104160  0.06447535    -0.91100
O140        O  0.22349653  0.25598049  0.98367451    -0.77100
O141        O  0.24878856  0.21947633  0.05486900    -0.86600
O142        O  0.25209479  0.28830376  0.06123392    -0.86200
O143        O  0.29661620  0.21725487  0.12484281    -0.73000
O144        O  0.29771549  0.27963564  0.12900065    -0.85100
Zr145      Zr  0.20431914  0.24812345  0.18370661     2.26400
Zr146      Zr  0.24870394  0.18558015  0.11694559     2.06300
Zr147      Zr  0.25262554  0.31546788  0.12876933     2.10000
Zr148      Zr  0.20457114  0.25642251  0.05586176     1.78800
O149        O  0.27284402  0.35437737  0.18061086    -0.93900
O150        O  0.17526932  0.21317080  0.01995201    -0.41700
O151        O  0.20464162  0.28381115  0.12286353    -0.78400
O152        O  0.20286728  0.22092496  0.11566991    -0.97100
O153        O  0.24932120  0.21234290  0.18467421    -0.90400
O154        O  0.25109636  0.28148354  0.19078043    -0.93200
C155        C  0.25110841  0.25395626  0.96604203     1.00500
C156        C  0.32595460  0.32948280  0.08080035     1.13500
C157        C  0.31942466  0.16929154  0.06334943     1.04300
O158        O  0.22790619  0.14696505  0.06509857    -0.95400
O159        O  0.20218016  0.15952820  0.14719220    -0.91100
O160        O  0.17451075  0.19646270  0.18583830    -0.84300
C161        C  0.17811875  0.16785554  0.17004861     1.10900
O162        O  0.35439726  0.24125360  0.18536084    -0.97300
Zr163      Zr  0.29595905  0.24569090  0.19090299     1.88900
O164        O  0.22157142  0.24748904  0.25879165    -0.74000
O165        O  0.26942049  0.14395119  0.16488575    -0.53300
O166        O  0.31536611  0.19651180  0.22570100    -0.97900
O167        O  0.32365258  0.29066804  0.22547474    -0.55100
O168        O  0.27588680  0.24473628  0.26266240    -0.74500
C169        C  0.24809486  0.24594645  0.28001274     0.97800
O170        O  0.15297508  0.24385647  0.22123788    -0.63300
O171        O  0.23415886  0.35807913  0.08072788    -0.58100
O172        O  0.17521548  0.29961526  0.18894089    -0.94800
O173        O  0.20642837  0.34007405  0.16269229    -0.93200
O174        O  0.18507353  0.30727466  0.02599766    -0.93600
O175        O  0.14624542  0.26114140  0.06172745    -0.92400
C176        C  0.18084785  0.32967302  0.18103665     1.16700
H177        H  0.25387181  0.30350990  0.03784851     0.32600
H178        H  0.18296185  0.20937862  0.11115149     0.43500
H179        H  0.25021972  0.29459270  0.21625419     0.37000
H180        H  0.31567033  0.20413848  0.12794211     0.33500
H181        H  0.16637786  0.22329994  0.99375191     0.25300
H182        H  0.26906026  0.12382573  0.14779082     0.31200
H183        H  0.29576191  0.18524356  0.23588053     0.37100
H184        H  0.17462967  0.30122116  0.99867959     0.31600
H185        H  0.21092688  0.35364588  0.07653177     0.30500
H186        H  0.27110487  0.37562007  0.16607193     0.32100
H187        H  0.32837156  0.28295211  0.25480854     0.31100
H188        H  0.14195385  0.26017253  0.09280324     0.35100
H189        H  0.15348475  0.26050609  0.24393761     0.27800
H190        H  0.34550496  0.24061840  0.99881359     0.32100
H191        H  0.36240860  0.23915815  0.21506992     0.34900
H192        H  0.23471916  0.37802726  0.09818054     0.27500
H193        H  0.13637083  0.25139921  0.20072220     0.40400
H194        H  0.20511973  0.15325636  0.06073941     0.30500
H195        H  0.19222382  0.19837876  0.00943645     0.38100
H196        H  0.30702091  0.30754764  0.22929080     0.29900
H197        H  0.29260026  0.14909645  0.16814080     0.30000
H198        H  0.36332533  0.25383284  0.03955208     0.30300
Zr199      Zr  0.29458682  0.24696283  0.56183434     2.17500
O200        O  0.34740720  0.24945238  0.52787039    -0.52100
O201        O  0.27676763  0.24587608  0.48700000    -0.75300
O202        O  0.32123002  0.19374026  0.55665374    -0.82100
O203        O  0.29722995  0.33702443  0.58807578    -0.83800
O204        O  0.29218342  0.15661193  0.59353453    -0.79500
O205        O  0.32560005  0.29715719  0.55559867    -0.91100
O206        O  0.22236611  0.24708842  0.48343873    -0.77100
O207        O  0.24815121  0.21319501  0.56011814    -0.86600
O208        O  0.24923485  0.28230826  0.55576897    -0.86200
O209        O  0.29567227  0.21830989  0.62897742    -0.73000
O210        O  0.29504645  0.28089547  0.62411064    -0.85100
Zr211      Zr  0.20236914  0.25142333  0.68394209     2.26400
Zr212      Zr  0.24844883  0.18509619  0.62716379     2.06300
Zr213      Zr  0.24882327  0.31478795  0.61889224     2.10000
Zr214      Zr  0.20286850  0.24854260  0.55526011     1.78800
O215        O  0.26818941  0.35689312  0.66683565    -0.93900
O216        O  0.17810012  0.20076382  0.52351833    -0.41700
O217        O  0.20224717  0.28114322  0.61790408    -0.78400
O218        O  0.20156549  0.21859189  0.62016727    -0.97100
O219        O  0.24852241  0.21758493  0.69022430    -0.90400
O220        O  0.24823506  0.28638110  0.68555089    -0.93200
C221        C  0.25010742  0.24640778  0.46595636     1.00500
C222        C  0.32161800  0.32676101  0.56711789     1.13500
C223        C  0.31632183  0.16473999  0.57056044     1.04300
O224        O  0.22632990  0.14224933  0.58262318    -0.95400
O225        O  0.20369464  0.16040047  0.66336494    -0.91100
O226        O  0.17215107  0.20008039  0.69045108    -0.84300
C227        C  0.17762308  0.17023639  0.68089048     1.10900
O228        O  0.35289966  0.25198684  0.68438004    -0.97300
Zr229      Zr  0.29436450  0.25230287  0.69033905     1.88900
O230        O  0.22028827  0.25215382  0.75915555    -0.74000
O231        O  0.27095289  0.14890345  0.68108457    -0.53300
O232        O  0.31805034  0.20559471  0.72617098    -0.97900
O233        O  0.31920871  0.30086424  0.71988000    -0.55100
O234        O  0.27480904  0.25352921  0.76238863    -0.74500
C235        C  0.24708995  0.25289469  0.78005592     0.97800
O236        O  0.15224522  0.26020338  0.72267787    -0.63300
O237        O  0.22729513  0.35420034  0.56822007    -0.58100
O238        O  0.17224589  0.30240867  0.68165741    -0.94800
O239        O  0.20144364  0.34052639  0.64679923    -0.93200
O240        O  0.17993717  0.29687617  0.52248173    -0.93600
O241        O  0.14424004  0.24962333  0.55831876    -0.92400
C242        C  0.17663597  0.33140894  0.66774330     1.16700
H243        H  0.25051284  0.29569051  0.53048620     0.32600
H244        H  0.18216756  0.20604302  0.61668280     0.43500
H245        H  0.24702647  0.30131716  0.70916531     0.37000
H246        H  0.31503138  0.20566288  0.63250770     0.33500
H247        H  0.16578959  0.20900576  0.49863247     0.25300
H248        H  0.26542686  0.12688894  0.67101661     0.31200
H249        H  0.29951893  0.19350132  0.73805624     0.37100
H250        H  0.17238151  0.28976831  0.49397375     0.31600
H251        H  0.23122462  0.37552549  0.58163483     0.30500
H252        H  0.26983457  0.37652422  0.64876954     0.32100
H253        H  0.30253290  0.31072583  0.73825001     0.31100
H254        H  0.13928582  0.25381203  0.58872589     0.35100
H255        H  0.13483743  0.25572823  0.70182849     0.27800
H256        H  0.34677821  0.23358806  0.50422251     0.32100
H257        H  0.36112015  0.25230681  0.71410163     0.34900
H258        H  0.24195952  0.35362177  0.54338261     0.27500
H259        H  0.15084832  0.24253318  0.74398435     0.40400
H260        H  0.20415353  0.14944740  0.57579586     0.30500
H261        H  0.19623510  0.18863451  0.51075938     0.38100
H262        H  0.32112099  0.31585564  0.69529289     0.29900
H263        H  0.29460580  0.15045050  0.67756774     0.30000
H264        H  0.36276429  0.24032047  0.54896162     0.30300
Zr265      Zr  0.29660055  0.74768086  0.42972192     2.17500
O266        O  0.34594816  0.74213754  0.47175214    -0.52100
O267        O  0.27716262  0.74952569  0.50417904    -0.75300
O268        O  0.32750789  0.79854853  0.43530683    -0.82100
O269        O  0.29899337  0.65855365  0.39420446    -0.83800
O270        O  0.30072429  0.83832286  0.39952080    -0.79500
O271        O  0.32740681  0.69709001  0.42989060    -0.91100
O272        O  0.22269098  0.75264148  0.50656499    -0.77100
O273        O  0.25086666  0.78217601  0.43375158    -0.86600
O274        O  0.25062873  0.71274911  0.43142901    -0.86200
O275        O  0.29863154  0.77899421  0.36455637    -0.73000
O276        O  0.29705291  0.71666207  0.36474179    -0.85100
Zr277      Zr  0.20564222  0.75151885  0.30554767     2.26400
Zr278      Zr  0.25270735  0.81391152  0.36964089     2.06300
Zr279      Zr  0.25034743  0.68323228  0.36550065     2.10000
Zr280      Zr  0.20488600  0.74743455  0.43401785     1.78800
O281        O  0.26873316  0.64523290  0.31144192    -0.93900
O282        O  0.17477839  0.79386415  0.46022495    -0.41700
O283        O  0.20474800  0.71818933  0.36866081    -0.78400
O284        O  0.20506381  0.78088955  0.37202277    -0.97100
O285        O  0.25271679  0.78445510  0.30372434    -0.90400
O286        O  0.25032130  0.71503317  0.30136004    -0.93200
C287        C  0.25031073  0.75215524  0.52455025     1.00500
C288        C  0.32373116  0.66816392  0.41551009     1.13500
C289        C  0.32474224  0.82776430  0.42126308     1.04300
O290        O  0.23566379  0.85220801  0.42406045    -0.95400
O291        O  0.20716760  0.84224919  0.34000704    -0.91100
O292        O  0.17926765  0.80518351  0.30096919    -0.84300
C293        C  0.18336493  0.83379569  0.31646358     1.10900
O294        O  0.35579091  0.74967304  0.30748716    -0.97300
Zr295      Zr  0.29726024  0.74806649  0.30076182     1.88900
O296        O  0.22373604  0.75112728  0.23062825    -0.74000
O297        O  0.26889787  0.85598578  0.31944612    -0.53300
O298        O  0.32205801  0.79440195  0.26557198    -0.97900
O299        O  0.32211551  0.69978999  0.27060898    -0.55100
O300        O  0.27805868  0.74896568  0.22862044    -0.74500
C301        C  0.25067461  0.75019173  0.21024148     0.97800
O302        O  0.15495073  0.75238365  0.26581704    -0.63300
O303        O  0.23159070  0.63955910  0.41170822    -0.58100
O304        O  0.17225803  0.70223667  0.30554484    -0.94800
O305        O  0.20018173  0.66165773  0.33780843    -0.93200
O306        O  0.18472395  0.69990116  0.47159292    -0.93600
O307        O  0.14693498  0.73951144  0.42702358    -0.92400
C308        C  0.17514511  0.67270711  0.31842476     1.16700
H309        H  0.25145878  0.69833066  0.45575148     0.32600
H310        H  0.18563720  0.79329614  0.37567927     0.43500
H311        H  0.24879715  0.70137448  0.27644715     0.37000
H312        H  0.31865473  0.79038634  0.36074995     0.33500
H313        H  0.16435650  0.78615322  0.48676638     0.25300
H314        H  0.27551558  0.87454864  0.33738997     0.31200
H315        H  0.30383907  0.80705777  0.25376711     0.37100
H316        H  0.18457807  0.68254946  0.44983131     0.31600
H317        H  0.23567820  0.61951508  0.39532272     0.30500
H318        H  0.25688531  0.62495016  0.31753199     0.32100
H319        H  0.30512854  0.68956822  0.25295139     0.31100
H320        H  0.14308992  0.73797323  0.39586016     0.35100
H321        H  0.13857672  0.76147312  0.28537457     0.27800
H322        H  0.34404813  0.75795570  0.49532127     0.32100
H323        H  0.36421860  0.74683421  0.27817347     0.34900
H324        H  0.24714818  0.63868353  0.43570685     0.27500
H325        H  0.15753962  0.76871170  0.24286422     0.40400
H326        H  0.24766367  0.84596658  0.45019692     0.30500
H327        H  0.19145280  0.80935090  0.46993389     0.38100
H328        H  0.32500462  0.68490786  0.29515716     0.29900
H329        H  0.28915170  0.84796870  0.30674676     0.30000
H330        H  0.36352191  0.75059246  0.45351082     0.30300
Zr331      Zr  0.29443467  0.74936249  0.92994454     2.17500
O332        O  0.34106513  0.74617481  0.97748083    -0.52100
O333        O  0.27422412  0.75179516  0.00361806    -0.75300
O334        O  0.32504368  0.80000639  0.93439756    -0.82100
O335        O  0.29807458  0.66011808  0.89536720    -0.83800
O336        O  0.29424885  0.84057038  0.90684927    -0.79500
O337        O  0.32568005  0.69884356  0.93136634    -0.91100
O338        O  0.21990189  0.74956165  0.00547196    -0.77100
O339        O  0.24830329  0.78338905  0.93358317    -0.86600
O340        O  0.24867330  0.71428178  0.93055965    -0.86200
O341        O  0.29660271  0.78151348  0.86536269    -0.73000
O342        O  0.29689156  0.71878834  0.86478697    -0.85100
Zr343      Zr  0.20490272  0.75203447  0.80470188     2.26400
Zr344      Zr  0.24999020  0.81532089  0.86979639     2.06300
Zr345      Zr  0.25047216  0.68489015  0.86479298     2.10000
Zr346      Zr  0.20251275  0.74863069  0.93246363     1.78800
O347        O  0.27090120  0.64788068  0.81082701    -0.93900
O348        O  0.17773276  0.79821578  0.95857838    -0.41700
O349        O  0.20384990  0.71855078  0.86766172    -0.78400
O350        O  0.20252344  0.78212226  0.87058410    -0.97100
O351        O  0.25121312  0.78606384  0.80384355    -0.90400
O352        O  0.25056424  0.71705881  0.80117686    -0.93200
C353        C  0.24725435  0.75156968  0.02386100     1.00500
C354        C  0.32241829  0.66973727  0.91735448     1.13500
C355        C  0.31973934  0.82981119  0.92493329     1.04300
O356        O  0.22810905  0.85336542  0.92149988    -0.95400
O357        O  0.20720339  0.84269254  0.83271344    -0.91100
O358        O  0.17758860  0.80483553  0.79798978    -0.84300
C359        C  0.18281637  0.83411532  0.81045247     1.10900
O360        O  0.35514464  0.75574562  0.80866022    -0.97300
Zr361      Zr  0.29677493  0.75103370  0.80129086     1.88900
O362        O  0.22390498  0.75247571  0.73021964    -0.74000
O363        O  0.27294426  0.85835917  0.82601397    -0.53300
O364        O  0.31866399  0.79942502  0.76739653    -0.97900
O365        O  0.32335877  0.70273587  0.77397621    -0.55100
O366        O  0.27847063  0.75003078  0.72851744    -0.74500
C367        C  0.25096003  0.75095548  0.71016922     0.97800
O368        O  0.15359756  0.74863629  0.76669046    -0.63300
O369        O  0.23233576  0.64159819  0.91197617    -0.58100
O370        O  0.17388849  0.70146648  0.80207979    -0.94800
O371        O  0.20334019  0.66105176  0.83243100    -0.93200
O372        O  0.17520974  0.70451099  0.96933532    -0.93600
O373        O  0.14442112  0.74403752  0.92317335    -0.92400
C374        C  0.17841041  0.67164793  0.81264945     1.16700
H375        H  0.24940073  0.69975182  0.95477177     0.32600
H376        H  0.18309453  0.79472810  0.87322892     0.43500
H377        H  0.24954970  0.70341571  0.77619585     0.37000
H378        H  0.31604246  0.79395628  0.86173841     0.33500
H379        H  0.16123054  0.79095293  0.97924222     0.25300
H380        H  0.27208293  0.87795030  0.84415503     0.31200
H381        H  0.29967401  0.81138295  0.75647326     0.37100
H382        H  0.19259104  0.68964526  0.97854942     0.31600
H383        H  0.21055913  0.64834984  0.92118746     0.30500
H384        H  0.26741332  0.62603691  0.82301193     0.32100
H385        H  0.33691389  0.71036571  0.75003958     0.31100
H386        H  0.14107423  0.74475444  0.89185327     0.35100
H387        H  0.13740299  0.75847297  0.78587401     0.27800
H388        H  0.33719689  0.76230042  0.00024484     0.32100
H389        H  0.36377916  0.75687007  0.77924412     0.34900
H390        H  0.22852807  0.62280674  0.89304294     0.27500
H391        H  0.15540948  0.76379681  0.74227283     0.40400
H392        H  0.20469214  0.85417251  0.91553132     0.30500
H393        H  0.19453921  0.80861141  0.97637635     0.38100
H394        H  0.30606312  0.69000070  0.76011935     0.29900
H395        H  0.29617633  0.85318093  0.82391901     0.30000
H396        H  0.35945458  0.75500097  0.96108519     0.30300
Zr397      Zr  0.49740837  0.95070025  0.93965789     2.17500
O398        O  0.50246449  0.89920489  0.90220191    -0.52100
O399        O  0.49730519  0.96840669  0.86460199    -0.75300
O400        O  0.44514353  0.92319496  0.93165061    -0.82100
O401        O  0.58580979  0.94671681  0.97672782    -0.83800
O402        O  0.40652105  0.95343733  0.96373484    -0.79500
O403        O  0.54740410  0.91921801  0.93954556    -0.91100
O404        O  0.49901418  0.02309253  0.86097602    -0.77100
O405        O  0.46415629  0.99735295  0.93486305    -0.86600
O406        O  0.53292571  0.99617556  0.93653866    -0.86200
O407        O  0.46580842  0.94981862  0.00436724    -0.73000
O408        O  0.52818925  0.95021950  0.00478224    -0.85100
Zr409      Zr  0.49660134  0.04266339  0.06247366     2.26400
Zr410      Zr  0.43312331  0.99751941  0.99915781     2.06300
Zr411      Zr  0.56242755  0.99645733  0.00239509     2.10000
Zr412      Zr  0.49942043  0.04277474  0.93319931     1.78800
O413        O  0.60416113  0.97803779  0.05151313    -0.93900
O414        O  0.45144017  0.06612011  0.90035077    -0.41700
O415        O  0.52916983  0.04345566  0.99882526    -0.78400
O416        O  0.46711477  0.04437461  0.99594355    -0.97100
O417        O  0.46234747  0.99646046  0.06528378    -0.90400
O418        O  0.53116096  0.99661418  0.06644847    -0.93200
C419        C  0.49795363  0.99517602  0.84352192     1.00500
C420        C  0.57598267  0.92231753  0.95509102     1.13500
C421        C  0.41582162  0.92851354  0.94298466     1.04300
O422        O  0.39475660  0.01890012  0.94734490    -0.95400
O423        O  0.40667983  0.04301559  0.03153803    -0.91100
O424        O  0.44474551  0.07190818  0.06702645    -0.84300
C425        C  0.41566610  0.06748626  0.05352050     1.10900
O426        O  0.49589300  0.89167430  0.06011478    -0.97300
Zr427      Zr  0.49698100  0.95038419  0.06847300     1.88900
O428        O  0.49666739  0.02403979  0.13744676    -0.74000
O429        O  0.39186087  0.97696828  0.04733654    -0.53300
O430        O  0.44956297  0.92774722  0.10331939    -0.97900
O431        O  0.54477104  0.92396820  0.09758774    -0.55100
O432        O  0.49989188  0.96928163  0.14101982    -0.74500
C433        C  0.49888252  0.99721321  0.15842020     0.97800
O434        O  0.50031472  0.09366683  0.10141029    -0.63300
O435        O  0.60134478  0.01468428  0.94946983    -0.58100
O436        O  0.54739069  0.07264159  0.06652881    -0.94800
O437        O  0.58713441  0.04320808  0.03546365    -0.93200
O438        O  0.54700873  0.06760836  0.90157276    -0.93600
O439        O  0.50004227  0.10167375  0.93451317    -0.92400
C440        C  0.57698987  0.06796666  0.05608059     1.16700
H441        H  0.54718473  0.99472528  0.91229130     0.32600
H442        H  0.45504497  0.06412564  0.99228812     0.43500
H443        H  0.54516661  0.99777681  0.09107770     0.37000
H444        H  0.45300741  0.93045987  0.00725503     0.33500
H445        H  0.45902369  0.07551492  0.87304538     0.25300
H446        H  0.37201118  0.97573043  0.02978682     0.31200
H447        H  0.43872360  0.94647411  0.11672129     0.37100
H448        H  0.55529886  0.05147548  0.88102564     0.31600
H449        H  0.59902928  0.03852633  0.94883387     0.30500
H450        H  0.62461591  0.98152602  0.03597637     0.32100
H451        H  0.53717880  0.91199676  0.12306330     0.31100
H452        H  0.50770480  0.10718316  0.96358188     0.35100
H453        H  0.49244721  0.11056565  0.08145731     0.27800
H454        H  0.48984268  0.90177943  0.87552828     0.32100
H455        H  0.49182062  0.88268715  0.08894432     0.34900
H456        H  0.62262031  0.01088551  0.96293443     0.27500
H457        H  0.48387787  0.09246641  0.12422733     0.40400
H458        H  0.37347711  0.01656413  0.96122133     0.30500
H459        H  0.43818464  0.04731348  0.89165777     0.38100
H460        H  0.55824412  0.94167344  0.10919499     0.29900
H461        H  0.39788918  0.95412311  0.05259641     0.30000
H462        H  0.49039318  0.88311772  0.91933774     0.30300
Zr463      Zr  0.50083885  0.95375364  0.43892071     2.17500
O464        O  0.50800095  0.90384462  0.39853911    -0.52100
O465        O  0.49928041  0.97251241  0.36436562    -0.75300
O466        O  0.45018538  0.92308438  0.43242334    -0.82100
O467        O  0.59042773  0.95366648  0.47195475    -0.83800
O468        O  0.41084803  0.94955162  0.46891854    -0.79500
O469        O  0.55186683  0.92328720  0.43954970    -0.91100
O470        O  0.49477389  0.02716238  0.36142727    -0.77100
O471        O  0.46517642  0.99897238  0.43599034    -0.86600
O472        O  0.53397133  0.00098279  0.43510429    -0.86200
O473        O  0.47031166  0.95109187  0.50443966    -0.73000
O474        O  0.53298546  0.95403802  0.50270429    -0.85100
Zr475      Zr  0.49835883  0.04488077  0.56238806     2.26400
Zr476      Zr  0.43499305  0.99711429  0.50114243     2.06300
Zr477      Zr  0.56493340  0.00174549  0.49967376     2.10000
Zr478      Zr  0.49839662  0.04608478  0.43378147     1.78800
O479        O  0.60750386  0.98594580  0.54924099    -0.93900
O480        O  0.45011943  0.07197027  0.40536608    -0.41700
O481        O  0.52979024  0.04742028  0.49787929    -0.78400
O482        O  0.46712393  0.04531834  0.49711986    -0.97100
O483        O  0.46621190  0.99711494  0.56569822    -0.90400
O484        O  0.53480707  0.00021898  0.56475130    -0.93200
C485        C  0.49627795  0.99937776  0.34376522     1.00500
C486        C  0.58101180  0.92808415  0.45242709     1.13500
C487        C  0.42119812  0.92576721  0.44655437     1.04300
O488        O  0.39475498  0.01728104  0.45092675    -0.95400
O489        O  0.40784636  0.04195530  0.53548147    -0.91100
O490        O  0.44620651  0.07343522  0.56649502    -0.84300
C491        C  0.41691057  0.06780303  0.55480457     1.10900
O492        O  0.50952785  0.89436371  0.55708334    -0.97300
Zr493      Zr  0.50272637  0.95251039  0.56706034     1.88900
O494        O  0.49708854  0.02529443  0.63692881    -0.74000
O495        O  0.39435284  0.97785568  0.55112668    -0.53300
O496        O  0.45688734  0.92374674  0.59749073    -0.97900
O497        O  0.55127448  0.93117592  0.60096475    -0.55100
O498        O  0.49900596  0.97056500  0.63944609    -0.74500
C499        C  0.49732329  0.99821063  0.65745218     0.97800
O500        O  0.50175435  0.09385766  0.60555839    -0.63300
O501        O  0.60322310  0.02086954  0.44645021    -0.58100
O502        O  0.54815050  0.07731933  0.56471583    -0.94800
O503        O  0.58792612  0.04952633  0.53128882    -0.93200
O504        O  0.54507250  0.07023443  0.39910114    -0.93600
O505        O  0.49880835  0.10488526  0.43992459    -0.92400
C506        C  0.57756025  0.07389222  0.55243989     1.16700
H507        H  0.54774990  0.00053672  0.41029022     0.32600
H508        H  0.45426372  0.06451042  0.49322995     0.43500
H509        H  0.54894557  0.00183768  0.58921000     0.37000
H510        H  0.45904328  0.93086872  0.50793381     0.33500
H511        H  0.45744952  0.08395970  0.37976069     0.25300
H512        H  0.37685015  0.96870749  0.53329775     0.31200
H513        H  0.46404041  0.91679645  0.62628077     0.37100
H514        H  0.53720994  0.07712292  0.37060557     0.31600
H515        H  0.60018873  0.04462394  0.44548995     0.30500
H516        H  0.62669582  0.98224278  0.53119870     0.32100
H517        H  0.55956972  0.94887882  0.61918466     0.31100
H518        H  0.50366900  0.10905518  0.47041082     0.35100
H519        H  0.49500328  0.11175218  0.58635362     0.27800
H520        H  0.49324781  0.90562085  0.37374689     0.32100
H521        H  0.50679582  0.88451658  0.58570597     0.34900
H522        H  0.62461300  0.01781807  0.45994643     0.27500
H523        H  0.48429181  0.09222352  0.62673054     0.40400
H524        H  0.39937486  0.00606270  0.42371627     0.30500
H525        H  0.43689506  0.05398161  0.39400342     0.38100
H526        H  0.56711437  0.92949780  0.57747501     0.29900
H527        H  0.40434321  0.95895032  0.56536578     0.30000
H528        H  0.49875962  0.88640732  0.41649920     0.30300
Zr529      Zr  0.70670985  0.75099549  0.44349060     2.17500
O530        O  0.65717887  0.75875888  0.48391563    -0.52100
O531        O  0.72585557  0.74899977  0.51798540    -0.75300
O532        O  0.67537151  0.70004622  0.44837190    -0.82100
O533        O  0.70762098  0.84141244  0.40995006    -0.83800
O534        O  0.70395904  0.66061404  0.41546810    -0.79500
O535        O  0.67823348  0.80350589  0.44481903    -0.91100
O536        O  0.78026464  0.74455677  0.51953574    -0.77100
O537        O  0.75134311  0.71450187  0.44491349    -0.86600
O538        O  0.75419459  0.78368461  0.44677844    -0.86200
O539        O  0.70318077  0.72119702  0.37732816    -0.73000
O540        O  0.70712533  0.78383179  0.38014792    -0.85100
Zr541      Zr  0.79584112  0.74815224  0.31789899     2.26400
Zr542      Zr  0.74858804  0.68519074  0.37885624     2.06300
Zr543      Zr  0.75516971  0.81537824  0.38266523     2.10000
Zr544      Zr  0.79863218  0.74730584  0.44687240     1.78800
O545        O  0.73942688  0.85895125  0.33441957    -0.93900
O546        O  0.82525048  0.69871507  0.47366392    -0.41700
O547        O  0.79937995  0.77881113  0.38297589    -0.78400
O548        O  0.79705431  0.71648573  0.38287703    -0.97100
O549        O  0.74800935  0.71665387  0.31451895    -0.90400
O550        O  0.75239629  0.78590835  0.31695123    -0.93200
C551        C  0.75289141  0.74634435  0.53801132     1.00500
C552        C  0.68275894  0.83265419  0.43106843     1.13500
C553        C  0.67928314  0.67049273  0.43614576     1.04300
O554        O  0.76663945  0.63961706  0.42228444    -0.95400
O555        O  0.79324903  0.65738175  0.34535136    -0.91100
O556        O  0.82320437  0.69550029  0.31126187    -0.84300
C557        C  0.81816651  0.66627737  0.32412519     1.10900
O558        O  0.64601498  0.75651884  0.32284686    -0.97300
Zr559      Zr  0.70441500  0.75433202  0.31491836     1.88900
O560        O  0.77552941  0.74937656  0.24392291    -0.74000
O561        O  0.72337358  0.65018135  0.32592384    -0.53300
O562        O  0.67930787  0.70769487  0.28083247    -0.97900
O563        O  0.68141392  0.80448574  0.28713411    -0.55100
O564        O  0.72136976  0.75619526  0.24168783    -0.74500
C565        C  0.74870697  0.75279866  0.22362261     0.97800
O566        O  0.84358532  0.75239311  0.27292325    -0.63300
O567        O  0.77653336  0.85352356  0.43492179    -0.58100
O568        O  0.82969955  0.79648328  0.31789652    -0.94800
O569        O  0.80471571  0.83696190  0.35410912    -0.93200
O570        O  0.82543078  0.79243138  0.48220602    -0.93600
O571        O  0.85696249  0.74946382  0.43900029    -0.92400
C572        C  0.82827067  0.82546997  0.33256414     1.16700
H573        H  0.75399110  0.79725436  0.47183623     0.32600
H574        H  0.81613437  0.70341906  0.38595191     0.43500
H575        H  0.75400125  0.80041075  0.29282038     0.37000
H576        H  0.68313966  0.70964718  0.37411296     0.33500
H577        H  0.83688342  0.70583049  0.49966361     0.25300
H578        H  0.72782623  0.62793971  0.33619802     0.31200
H579        H  0.66890692  0.71633449  0.25469405     0.37100
H580        H  0.80834067  0.80383474  0.49819129     0.31600
H581        H  0.77543521  0.87487214  0.42057336     0.30500
H582        H  0.75008045  0.87850533  0.34603322     0.32100
H583        H  0.69872493  0.81456829  0.26995774     0.31100
H584        H  0.86066368  0.74698379  0.40794254     0.35100
H585        H  0.86185189  0.74513498  0.29089532     0.27800
H586        H  0.65532971  0.73996166  0.50340913     0.32100
H587        H  0.63725938  0.75839553  0.29348715     0.34900
H588        H  0.76012854  0.85474261  0.45774509     0.27500
H589        H  0.84118945  0.73543425  0.25084221     0.40400
H590        H  0.76261704  0.64626701  0.45216221     0.30500
H591        H  0.80757574  0.68488777  0.48448632     0.38100
H592        H  0.67935778  0.81868896  0.31241592     0.29900
H593        H  0.69991442  0.65303786  0.33015355     0.30000
H594        H  0.63952128  0.75607361  0.46289909     0.30300
Zr595      Zr  0.70484398  0.75079225  0.94084902     2.17500
O596        O  0.65495672  0.75500740  0.98155474    -0.52100
O597        O  0.72084365  0.75123295  0.01677743    -0.75300
O598        O  0.67484276  0.69925672  0.94284130    -0.82100
O599        O  0.70034818  0.84018297  0.90371365    -0.83800
O600        O  0.70548409  0.66065080  0.91128841    -0.79500
O601        O  0.67342090  0.80064243  0.93968816    -0.91100
O602        O  0.77528706  0.75392155  0.02239291    -0.77100
O603        O  0.75084883  0.71665282  0.94579667    -0.86600
O604        O  0.75013167  0.78611476  0.94751482    -0.86200
O605        O  0.70513072  0.72112332  0.87444976    -0.73000
O606        O  0.70600821  0.78335228  0.87704272    -0.85100
Zr607      Zr  0.79944064  0.75202500  0.82221799     2.26400
Zr608      Zr  0.75173121  0.68713909  0.87991741     2.06300
Zr609      Zr  0.75195159  0.81746394  0.88316430     2.10000
Zr610      Zr  0.79617039  0.75197763  0.95111273     1.78800
O611        O  0.73877941  0.86219931  0.83548509    -0.93900
O612        O  0.81714383  0.70474274  0.98882021    -0.41700
O613        O  0.79826126  0.78329059  0.88704151    -0.78400
O614        O  0.79870395  0.72058830  0.88752721    -0.97100
O615        O  0.75324793  0.71835117  0.81541090    -0.90400
O616        O  0.75423261  0.78766439  0.81757835    -0.93200
C617        C  0.74714270  0.75277398  0.03863022     1.00500
C618        C  0.67602543  0.82946683  0.92465827     1.13500
C619        C  0.67978594  0.66999324  0.93032241     1.04300
O620        O  0.76912298  0.64289372  0.92602204    -0.95400
O621        O  0.79842410  0.66140198  0.84916556    -0.91100
O622        O  0.82931298  0.70050187  0.81878472    -0.84300
C623        C  0.82407785  0.67095897  0.83014438     1.10900
O624        O  0.65004842  0.76246715  0.81359596    -0.97300
Zr625      Zr  0.70808262  0.75385460  0.81183665     1.88900
O626        O  0.78308503  0.75088156  0.74610192    -0.74000
O627        O  0.73162736  0.65120456  0.82432372    -0.53300
O628        O  0.67965634  0.70689443  0.78344167    -0.97900
O629        O  0.69021147  0.80193794  0.77297600    -0.55100
O630        O  0.72881262  0.74828090  0.74098004    -0.74500
C631        C  0.75678738  0.74891272  0.72421812     0.97800
O632        O  0.84863808  0.75769408  0.78040877    -0.63300
O633        O  0.76764108  0.85518623  0.93942106    -0.58100
O634        O  0.83106802  0.80209681  0.82500761    -0.94800
O635        O  0.80096475  0.84121773  0.85642509    -0.93200
O636        O  0.82133122  0.80074859  0.97946071    -0.93600
O637        O  0.85478123  0.74881807  0.95085553    -0.92400
C638        C  0.82655061  0.83133867  0.83769572     1.16700
H639        H  0.74827933  0.79993245  0.97224631     0.32600
H640        H  0.81801389  0.70815761  0.89231864     0.43500
H641        H  0.75628077  0.80208046  0.79340144     0.37000
H642        H  0.68564764  0.70897511  0.86954826     0.33500
H643        H  0.82767659  0.71349189  0.01476367     0.25300
H644        H  0.73729530  0.62919253  0.83439329     0.31200
H645        H  0.69464103  0.69705084  0.76264503     0.37100
H646        H  0.82622757  0.79558226  0.00969186     0.31600
H647        H  0.77899161  0.87299543  0.92452886     0.30500
H648        H  0.74374409  0.88189115  0.85223437     0.32100
H649        H  0.70516625  0.80455855  0.74863691     0.31100
H650        H  0.86085024  0.75236229  0.92063816     0.35100
H651        H  0.86637996  0.75128330  0.79980623     0.27800
H652        H  0.65498310  0.73658923  0.00185095     0.32100
H653        H  0.64259075  0.75957809  0.78376913     0.34900
H654        H  0.74727780  0.86507597  0.94932678     0.27500
H655        H  0.84776151  0.74038075  0.75863545     0.40400
H656        H  0.78981397  0.65035826  0.93835853     0.30500
H657        H  0.79784236  0.69332300  0.99970356     0.38100
H658        H  0.69546098  0.82020197  0.79216589     0.29900
H659        H  0.70786749  0.65221889  0.82666562     0.30000
H660        H  0.63738305  0.75023445  0.96109197     0.30300
Zr661      Zr  0.70246868  0.24658865  0.06779540     2.17500
O662        O  0.65255971  0.24383530  0.02649653    -0.52100
O663        O  0.72139703  0.24477871  0.99321820    -0.75300
O664        O  0.67544158  0.29948421  0.05797139    -0.82100
O665        O  0.69688565  0.15868463  0.10904433    -0.83800
O666        O  0.70720043  0.33841868  0.08663182    -0.79500
O667        O  0.67009384  0.19647678  0.07002064    -0.91100
O668        O  0.77589120  0.24224807  0.99112633    -0.77100
O669        O  0.75044727  0.27792075  0.06146138    -0.86600
O670        O  0.74655688  0.20931030  0.06870296    -0.86200
O671        O  0.70260712  0.28066332  0.13034973    -0.73000
O672        O  0.70022145  0.21861467  0.13534724    -0.85100
Zr673      Zr  0.79398257  0.24970783  0.19232780     2.26400
Zr674      Zr  0.75095226  0.31185459  0.12332450     2.06300
Zr675      Zr  0.74534806  0.18283473  0.13696222     2.10000
Zr676      Zr  0.79441111  0.24074381  0.06376098     1.78800
O677        O  0.72424099  0.14725249  0.19238482    -0.93900
O678        O  0.82540111  0.28361794  0.02943734    -0.41700
O679        O  0.79353039  0.21411948  0.13146608    -0.78400
O680        O  0.79652362  0.27627014  0.12353851    -0.97100
O681        O  0.74919038  0.28568274  0.19160387    -0.90400
O682        O  0.74688533  0.21680122  0.19876512    -0.93200
C683        C  0.74835793  0.24347042  0.97295331     1.00500
C684        C  0.67282539  0.16789628  0.08634748     1.13500
C685        C  0.68172726  0.32929731  0.06698379     1.04300
O686        O  0.77409567  0.34978334  0.07221203    -0.95400
O687        O  0.79722713  0.33735485  0.15480355    -0.91100
O688        O  0.82525349  0.30057832  0.19353807    -0.84300
C689        C  0.82136638  0.32923149  0.17780506     1.10900
O690        O  0.64356701  0.25624222  0.19385619    -0.97300
Zr691      Zr  0.70216048  0.25271621  0.19694776     1.88900
O692        O  0.77542520  0.25115284  0.26716729    -0.74000
O693        O  0.73116162  0.35540236  0.16849284    -0.53300
O694        O  0.68036612  0.30347001  0.22371687    -0.97900
O695        O  0.67552545  0.20670769  0.23075318    -0.55100
O696        O  0.72099708  0.25567944  0.26965085    -0.74500
C697        C  0.74865704  0.25404349  0.28758259     0.97800
O698        O  0.84285344  0.25344271  0.23563781    -0.63300
O699        O  0.76258125  0.13637372  0.09487985    -0.58100
O700        O  0.82327373  0.19824883  0.19688865    -0.94800
O701        O  0.79235409  0.15837967  0.16871817    -0.93200
O702        O  0.81274304  0.18941790  0.03450796    -0.93600
O703        O  0.85250043  0.23311910  0.06855297    -0.92400
C704        C  0.81779433  0.16837409  0.18776940     1.16700
H705        H  0.74481056  0.19406085  0.04547481     0.32600
H706        H  0.81656197  0.28759755  0.11916975     0.43500
H707        H  0.74743707  0.20384795  0.22448487     0.37000
H708        H  0.68372342  0.29409759  0.13255763     0.33500
H709        H  0.83218784  0.27444958  0.00167931     0.25300
H710        H  0.73374258  0.37523289  0.15101890     0.31200
H711        H  0.69940418  0.31589360  0.23344299     0.37100
H712        H  0.80841210  0.17335792  0.05727916     0.31600
H713        H  0.75078348  0.11771175  0.10710825     0.30500
H714        H  0.72324683  0.12558877  0.17898823     0.32100
H715        H  0.69172227  0.19732847  0.25046884     0.31100
H716        H  0.85778835  0.23743361  0.09887217     0.35100
H717        H  0.84013807  0.23743608  0.25895159     0.27800
H718        H  0.65577702  0.25824568  0.00154622     0.32100
H719        H  0.63631794  0.25644212  0.22397276     0.34900
H720        H  0.75290961  0.13945495  0.06623155     0.27500
H721        H  0.86049343  0.24476533  0.21777714     0.40400
H722        H  0.76578709  0.34278594  0.04403267     0.30500
H723        H  0.80928057  0.30031612  0.02179935     0.38100
H724        H  0.67321310  0.19046037  0.20774927     0.29900
H725        H  0.70757001  0.35206875  0.16986003     0.30000
H726        H  0.63594356  0.25471731  0.04398641     0.30300
Zr727      Zr  0.70291266  0.24982312  0.56863543     2.17500
O728        O  0.65458562  0.24161259  0.52553574    -0.52100
O729        O  0.72093527  0.25226853  0.49365079    -0.75300
O730        O  0.67119451  0.30054404  0.56491912    -0.82100
O731        O  0.70293354  0.15994983  0.60476546    -0.83800
O732        O  0.70174985  0.33970319  0.59517719    -0.79500
O733        O  0.67392516  0.19788853  0.56893300    -0.91100
O734        O  0.77546822  0.24959064  0.49042689    -0.77100
O735        O  0.74812577  0.28524744  0.56540518    -0.86600
O736        O  0.74955485  0.21604963  0.56511432    -0.86200
O737        O  0.70068457  0.28008882  0.63461176    -0.73000
O738        O  0.70408582  0.21742700  0.63254809    -0.85100
Zr739      Zr  0.79441078  0.25293617  0.69250803     2.26400
Zr740      Zr  0.74669913  0.31518682  0.63098202     2.06300
Zr741      Zr  0.75182555  0.18539501  0.63007678     2.10000
Zr742      Zr  0.79457123  0.25135177  0.56293361     1.78800
O743        O  0.73930400  0.14127231  0.67905494    -0.93900
O744        O  0.81743236  0.29978054  0.53034185    -0.41700
O745        O  0.79671777  0.22133524  0.62812922    -0.78400
O746        O  0.79440503  0.28299325  0.62621918    -0.97100
O747        O  0.74674995  0.28478120  0.69607581    -0.90400
O748        O  0.75061110  0.21556989  0.69534631    -0.93200
C749        C  0.74765515  0.25077556  0.47289623     1.00500
C750        C  0.67819656  0.16888301  0.58315263     1.13500
C751        C  0.67605881  0.33014067  0.57639207     1.04300
O752        O  0.76344209  0.36118125  0.58750312    -0.95400
O753        O  0.79273399  0.34268999  0.66106197    -0.91100
O754        O  0.82297498  0.30505935  0.69567479    -0.84300
C755        C  0.81808157  0.33395296  0.68153303     1.10900
O756        O  0.64475627  0.23912944  0.69187592    -0.97300
Zr757      Zr  0.70282211  0.24733404  0.69736500     1.88900
O758        O  0.77563448  0.25081759  0.76718049    -0.74000
O759        O  0.72494357  0.35159005  0.68476482    -0.53300
O760        O  0.67155509  0.29144100  0.72787399    -0.97900
O761        O  0.68505450  0.19643274  0.72929510    -0.55100
O762        O  0.72110811  0.25189255  0.76976896    -0.74500
C763        C  0.74875868  0.25170640  0.78768024     0.97800
O764        O  0.84237293  0.25819143  0.73733343    -0.63300
O765        O  0.77271523  0.14781446  0.57704421    -0.58100
O766        O  0.82777103  0.20405533  0.69276903    -0.94800
O767        O  0.80172377  0.16366647  0.65740905    -0.93200
O768        O  0.81872641  0.20242064  0.53394019    -0.93600
O769        O  0.85322107  0.25268162  0.56505016    -0.92400
C770        C  0.82561486  0.17495070  0.67862015     1.16700
H771        H  0.74871966  0.20205791  0.54046694     0.32600
H772        H  0.81361668  0.29563392  0.62187434     0.43500
H773        H  0.75262104  0.20135351  0.71973058     0.37000
H774        H  0.68088434  0.29187856  0.63849919     0.33500
H775        H  0.82550138  0.29260880  0.50218220     0.25300
H776        H  0.73267260  0.37332304  0.67615503     0.31200
H777        H  0.68751353  0.30871213  0.73357601     0.37100
H778        H  0.82544525  0.18968171  0.55927708     0.31600
H779        H  0.77514417  0.12700241  0.59245576     0.30500
H780        H  0.74383276  0.12132358  0.66267378     0.32100
H781        H  0.70139165  0.19089021  0.75121398     0.31100
H782        H  0.85867047  0.25148033  0.59583221     0.35100
H783        H  0.84021631  0.24139222  0.75977332     0.27800
H784        H  0.65367168  0.26014516  0.50547042     0.32100
H785        H  0.63695759  0.23713855  0.72164034     0.34900
H786        H  0.75473687  0.14409314  0.55681898     0.27500
H787        H  0.86074337  0.25099424  0.71965992     0.40400
H788        H  0.75738287  0.35540697  0.55787327     0.30500
H789        H  0.79863737  0.31361475  0.52349785     0.38100
H790        H  0.68804863  0.18009528  0.70656550     0.29900
H791        H  0.70146667  0.35217083  0.67915551     0.30000
H792        H  0.63630741  0.24487434  0.54529780     0.30300
Zr793      Zr  0.50273440  0.45467417  0.06506195     2.17500
O794        O  0.50042822  0.40737565  0.11185605    -0.52100
O795        O  0.50423162  0.47377401  0.13991603    -0.75300
O796        O  0.55403873  0.42414287  0.06612684    -0.82100
O797        O  0.41341910  0.45001884  0.03144750    -0.83800
O798        O  0.59248566  0.45459897  0.03399350    -0.79500
O799        O  0.45310117  0.42249000  0.06632284    -0.91100
O800        O  0.50570652  0.52850895  0.14299127    -0.77100
O801        O  0.53658923  0.50104548  0.06739692    -0.86600
O802        O  0.46778711  0.50051661  0.06938460    -0.86200
O803        O  0.53121003  0.45334538  0.99776868    -0.73000
O804        O  0.46982472  0.45415483  0.00139304    -0.85100
Zr805      Zr  0.50057184  0.54741984  0.94184027     2.26400
Zr806      Zr  0.56524857  0.49994148  0.00109837     2.06300
Zr807      Zr  0.43598715  0.50052491  0.00541653     2.10000
Zr808      Zr  0.50171113  0.54698669  0.07037071     1.78800
O809        O  0.39309989  0.48110585  0.95883492    -0.93900
O810        O  0.55028897  0.57313438  0.09727502    -0.41700
O811        O  0.46961499  0.54760810  0.00685179    -0.78400
O812        O  0.53233618  0.54745343  0.00638046    -0.97100
O813        O  0.53376901  0.50060848  0.93689754    -0.90400
O814        O  0.46506954  0.50196452  0.93942657    -0.93200
C815        C  0.50575296  0.50066297  0.16073889     1.00500
C816        C  0.42408325  0.42545451  0.05227622     1.13500
C817        C  0.58316808  0.42881076  0.05320049     1.04300
O818        O  0.60828431  0.52019765  0.04682489    -0.95400
O819        O  0.59144396  0.54492114  0.96704302    -0.91100
O820        O  0.55309840  0.57502826  0.93381628    -0.84300
C821        C  0.58251727  0.56969281  0.94552240     1.10900
O822        O  0.49996754  0.39631093  0.93881713    -0.97300
Zr823      Zr  0.49822250  0.45529193  0.93511675     1.88900
O824        O  0.49979189  0.53038765  0.86629041    -0.74000
O825        O  0.60036060  0.47657413  0.94721397    -0.53300
O826        O  0.54352874  0.43271631  0.89569861    -0.97900
O827        O  0.44860900  0.43115285  0.90816488    -0.55100
O828        O  0.49357422  0.47586253  0.86330166    -0.74500
C829        C  0.49613730  0.50365211  0.84562423     0.97800
O830        O  0.50382792  0.60155151  0.91062213    -0.63300
O831        O  0.39887555  0.52041399  0.05948604    -0.58100
O832        O  0.44828637  0.57550737  0.93877155    -0.94800
O833        O  0.40953113  0.54633506  0.97274926    -0.93200
O834        O  0.45574522  0.57057115  0.10718689    -0.93600
O835        O  0.49779035  0.60569840  0.06435460    -0.92400
C836        C  0.41898295  0.57079326  0.95087939     1.16700
H837        H  0.45439666  0.49939480  0.09450884     0.32600
H838        H  0.54505852  0.56685218  0.00925250     0.43500
H839        H  0.45034898  0.50372052  0.91556334     0.37000
H840        H  0.54325852  0.43371409  0.99330053     0.33500
H841        H  0.54286560  0.58708825  0.12093309     0.25300
H842        H  0.62218875  0.47751311  0.95995823     0.31200
H843        H  0.53514249  0.42837553  0.86661460     0.37100
H844        H  0.46502335  0.58130822  0.13267370     0.31600
H845        H  0.37811063  0.52309069  0.04425092     0.30500
H846        H  0.37329187  0.48257927  0.97626139     0.32100
H847        H  0.45450441  0.42128344  0.88050027     0.31100
H848        H  0.48729911  0.60954008  0.03635038     0.35100
H849        H  0.48821840  0.60182826  0.88663952     0.27800
H850        H  0.51965769  0.40870059  0.13059026     0.32100
H851        H  0.49871603  0.38859284  0.90893232     0.34900
H852        H  0.39527477  0.50181761  0.07889851     0.27500
H853        H  0.49475288  0.61640528  0.93226559     0.40400
H854        H  0.60222613  0.54287403  0.05304481     0.30500
H855        H  0.56256685  0.55558603  0.11146775     0.38100
H856        H  0.43449533  0.44954074  0.90036150     0.29900
H857        H  0.59490952  0.45323565  0.94700626     0.30000
H858        H  0.50434244  0.38846069  0.09327096     0.30300
Zr859      Zr  0.49862196  0.45389604  0.56665277     2.17500
O860        O  0.49354286  0.40570282  0.61146191    -0.52100
O861        O  0.49654941  0.47395044  0.64069217    -0.75300
O862        O  0.54971782  0.42514975  0.57592908    -0.82100
O863        O  0.41268591  0.44720829  0.52325307    -0.83800
O864        O  0.58974907  0.45698557  0.54972425    -0.79500
O865        O  0.44984911  0.42015175  0.56277164    -0.91100
O866        O  0.50287304  0.52844524  0.64239227    -0.77100
O867        O  0.53068541  0.50154043  0.57275236    -0.86600
O868        O  0.46209107  0.49845047  0.56550449    -0.86200
O869        O  0.53317239  0.45332711  0.50452021    -0.73000
O870        O  0.47138435  0.45136277  0.49892249    -0.85100
Zr871      Zr  0.50207188  0.54496524  0.44196712     2.26400
Zr872      Zr  0.56481813  0.50154585  0.51127877     2.06300
Zr873      Zr  0.43591954  0.49662159  0.49735196     2.10000
Zr874      Zr  0.49426376  0.54608728  0.57025068     1.78800
O875        O  0.40089660  0.47670758  0.44066136    -0.93900
O876        O  0.53655394  0.58138418  0.59769469    -0.41700
O877        O  0.46717509  0.54471756  0.50302806    -0.78400
O878        O  0.52951445  0.54766328  0.51028319    -0.97100
O879        O  0.53829871  0.50013060  0.44306197    -0.90400
O880        O  0.46967427  0.49751111  0.43579444    -0.93200
C881        C  0.50041133  0.50091658  0.66066038     1.00500
C882        C  0.42174318  0.42287914  0.54560298     1.13500
C883        C  0.57950094  0.43108359  0.56787949     1.04300
O884        O  0.60216142  0.52444712  0.56328401    -0.95400
O885        O  0.59136630  0.54664457  0.47707504    -0.91100
O886        O  0.55349488  0.57441836  0.43929596    -0.84300
C887        C  0.58233185  0.57044995  0.45360098     1.10900
O888        O  0.51436714  0.39444508  0.44220019    -0.97300
Zr889      Zr  0.50580575  0.45278847  0.43779476     1.88900
O890        O  0.50363826  0.52587770  0.36726229    -0.74000
O891        O  0.60797552  0.48023830  0.46698087    -0.53300
O892        O  0.55775700  0.43719724  0.40803250    -0.97900
O893        O  0.46227439  0.42096963  0.40667554    -0.55100
O894        O  0.50324848  0.47105761  0.36494900    -0.74500
C895        C  0.50305764  0.49878034  0.34683181     0.97800
O896        O  0.49997568  0.59562460  0.40165148    -0.63300
O897        O  0.38933123  0.51188258  0.54011027    -0.58100
O898        O  0.45084766  0.57499593  0.43653016    -0.94800
O899        O  0.41197740  0.54455684  0.46742592    -0.93200
O900        O  0.44519356  0.55989088  0.60864750    -0.93600
O901        O  0.47976748  0.60295753  0.56288452    -0.92400
C902        C  0.42128098  0.56980835  0.44729552     1.16700
H903        H  0.44677317  0.49689687  0.58859921     0.32600
H904        H  0.54116017  0.56767332  0.51395585     0.43500
H905        H  0.45664266  0.49787036  0.41020211     0.37000
H906        H  0.54629683  0.43420924  0.50202754     0.33500
H907        H  0.52872034  0.58856991  0.62596696     0.25300
H908        H  0.62779735  0.48354267  0.48410777     0.31200
H909        H  0.55363558  0.43312637  0.37734937     0.37100
H910        H  0.45265727  0.57140862  0.63456106     0.31600
H911        H  0.38772385  0.49539333  0.56299863     0.30500
H912        H  0.37949715  0.47442043  0.45422119     0.32100
H913        H  0.45110609  0.41111007  0.43140409     0.31100
H914        H  0.48212515  0.60762970  0.53200966     0.35100
H915        H  0.50767302  0.61272107  0.42134117     0.27800
H916        H  0.50864266  0.40895043  0.63561966     0.32100
H917        H  0.51697842  0.38708037  0.41232660     0.34900
H918        H  0.39610238  0.53184172  0.55509471     0.27500
H919        H  0.51677997  0.59394425  0.37936834     0.40400
H920        H  0.59382471  0.51748245  0.59145593     0.30500
H921        H  0.55472168  0.56666216  0.60428027     0.38100
H922        H  0.44682515  0.43720523  0.39561589     0.29900
H923        H  0.60472256  0.45649786  0.46692880     0.30000
H924        H  0.50294387  0.38770338  0.59478469     0.30300
Zr925      Zr  0.99733168  0.54645818  0.30955200     2.17500
O926        O  0.99986670  0.60009184  0.34202542    -0.52100
O927        O  0.99686329  0.52961301  0.38505107    -0.75300
O928        O  0.94425057  0.57213654  0.31741851    -0.82100
O929        O  0.08641400  0.55275555  0.27608210    -0.83800
O930        O  0.90690071  0.54131650  0.28381807    -0.79500
O931        O  0.04641417  0.57925588  0.31137915    -0.91100
O932        O  0.99586337  0.47486617  0.38867700    -0.77100
O933        O  0.96566687  0.49854451  0.31453200    -0.86600
O934        O  0.03470306  0.50252854  0.31369695    -0.86200
O935        O  0.96613095  0.54583812  0.24445297    -0.73000
O936        O  0.02850075  0.54751814  0.24494329    -0.85100
Zr937      Zr  0.00115001  0.45314582  0.18905523     2.26400
Zr938      Zr  0.93487089  0.49715848  0.24975693     2.06300
Zr939      Zr  0.06477279  0.50276238  0.24836448     2.10000
Zr940      Zr  0.00295427  0.45469911  0.31744165     1.78800
O941        O  0.10262386  0.52237326  0.19491815    -0.93900
O942        O  0.95985044  0.42166456  0.34729879    -0.41700
O943        O  0.03330207  0.45467145  0.25293796    -0.78400
O944        O  0.97052277  0.45170422  0.25468950    -0.97100
O945        O  0.96498955  0.49785536  0.18464575    -0.90400
O946        O  0.03382102  0.50063909  0.18376311    -0.93200
C947        C  0.99547162  0.50282238  0.40608958     1.00500
C948        C  0.07539951  0.57673731  0.29739690     1.13500
C949        C  0.91510893  0.56621710  0.30549401     1.04300
O950        O  0.89588871  0.47349022  0.29874113    -0.95400
O951        O  0.91100829  0.45098976  0.21475889    -0.91100
O952        O  0.95129813  0.42121451  0.18537432    -0.84300
C953        C  0.92167057  0.42569482  0.19582419     1.10900
O954        O  0.99200776  0.60407163  0.18246649    -0.97300
Zr955      Zr  0.99744714  0.54529889  0.18077714     1.88900
O956        O  0.00204298  0.47066512  0.11382252    -0.74000
O957        O  0.89287216  0.51631160  0.20139359    -0.53300
O958        O  0.94707393  0.56274773  0.14778451    -0.97900
O959        O  0.04265254  0.57446923  0.14922580    -0.55100
O960        O  0.00011478  0.52533945  0.10904036    -0.74500
C961        C  0.00131361  0.49722727  0.09226408     0.97800
O962        O  0.99939925  0.40590759  0.14246619    -0.63300
O963        O  0.10822263  0.49011548  0.29824609    -0.58100
O964        O  0.05171487  0.42173822  0.19365492    -0.94800
O965        O  0.09026149  0.45325601  0.22376944    -0.93200
O966        O  0.05230003  0.43866402  0.35410541    -0.93600
O967        O  0.01240965  0.39662639  0.31273427    -0.92400
C968        C  0.08089431  0.42668814  0.20638217     1.16700
H969        H  0.04876277  0.50467890  0.33818128     0.32600
H970        H  0.95897012  0.43172769  0.25896614     0.43500
H971        H  0.04785589  0.49982526  0.15922058     0.37000
H972        H  0.95281832  0.56481356  0.24129553     0.33500
H973        H  0.96685383  0.41668413  0.37685360     0.25300
H974        H  0.87263163  0.51426514  0.21785651     0.31200
H975        H  0.95233874  0.56690562  0.11743908     0.37100
H976        H  0.04512635  0.43046023  0.38225906     0.31600
H977        H  0.10581438  0.46676021  0.30460878     0.30500
H978        H  0.12413807  0.51916246  0.20798675     0.32100
H979        H  0.05494503  0.55795085  0.13324680     0.31100
H980        H  0.02629287  0.39391777  0.28731576     0.35100
H981        H  0.01974865  0.40630619  0.12594155     0.27800
H982        H  0.98493326  0.59954841  0.36662155     0.32100
H983        H  0.99000400  0.61093440  0.15223448     0.34900
H984        H  0.12818086  0.49160725  0.28109760     0.27500
H985        H  0.00131612  0.38692512  0.16150664     0.34000
H986        H  0.90164592  0.48228010  0.32715374     0.30500
H987        H  0.94154514  0.43676877  0.35073891     0.38100
H988        H  0.05672660  0.58008891  0.17370705     0.29900
H989        H  0.89648160  0.53992864  0.19890210     0.30000
H990        H  0.98973062  0.61499982  0.32112038     0.30300
Zr991      Zr  0.00024797  0.54559110  0.81193691     2.17500
O992        O  0.00310135  0.59393980  0.85652159    -0.52100
O993        O  0.00196729  0.52629837  0.88640495    -0.75300
O994        O  0.94837714  0.57401966  0.81962688    -0.82100
O995        O  0.08781579  0.54904976  0.77283277    -0.83800
O996        O  0.90917113  0.54533409  0.78632238    -0.79500
O997        O  0.05035261  0.57763434  0.80935867    -0.91100
O998        O  0.00190894  0.47152411  0.88891222    -0.77100
O999        O  0.96531007  0.49992762  0.81488702    -0.86600
O1000       O  0.03428850  0.49897469  0.81441244    -0.86200
O1001       O  0.96890230  0.54806000  0.74683965    -0.73000
O1002       O  0.03089688  0.54615385  0.74685450    -0.85100
Zr1003     Zr  0.99743104  0.45478513  0.68752686     2.26400
Zr1004     Zr  0.93475213  0.50128032  0.74991321     2.06300
Zr1005     Zr  0.06393169  0.49896705  0.74894837     2.10000
Zr1006     Zr  0.99914978  0.45341932  0.81633822     1.78800
O1007       O  0.10697976  0.51286056  0.69943658    -0.93900
O1008       O  0.95089060  0.43245499  0.85097714    -0.41700
O1009       O  0.02948284  0.45294972  0.75166806    -0.78400
O1010       O  0.96709827  0.45334832  0.75314117    -0.97100
O1011       O  0.96430579  0.50170181  0.68444223    -0.90400
O1012       O  0.03300012  0.50008855  0.68427036    -0.93200
C1013       C  0.00237771  0.49923315  0.90686163     1.00500
C1014       C  0.07882195  0.57419184  0.79362412     1.13500
C1015       C  0.91883513  0.56948085  0.80832743     1.04300
O1016       O  0.89398612  0.47830106  0.79686278    -0.95400
O1017       O  0.90739582  0.45750105  0.71468012    -0.91100
O1018       O  0.94498175  0.42767358  0.68017861    -0.84300
C1019       C  0.91589262  0.43304871  0.69243589     1.10900
O1020       O  0.00467247  0.60579379  0.68595924    -0.97300
Zr1021     Zr  0.99976656  0.54703658  0.68263348     1.88900
O1022       O  0.99650627  0.47391432  0.61308508    -0.74000
O1023       O  0.89608124  0.52561849  0.70078827    -0.53300
O1024       O  0.95211159  0.57492537  0.65558622    -0.97900
O1025       O  0.04834393  0.56771033  0.64839343    -0.55100
O1026       O  0.99467031  0.52859072  0.61005244    -0.74500
C1027       C  0.99513363  0.50078009  0.59225889     0.97800
O1028       O  0.00042340  0.40358659  0.64912804    -0.63300
O1029       O  0.10326019  0.48014176  0.80148352    -0.58100
O1030       O  0.04701431  0.42282174  0.68329112    -0.94800
O1031       O  0.08635817  0.45069012  0.71769037    -0.93200
O1032       O  0.04450799  0.42556074  0.84934634    -0.93600
O1033       O  0.99767576  0.39483339  0.80859779    -0.92400
C1034       C  0.07626974  0.42635277  0.69609310     1.16700
H1035       H  0.04861598  0.49958085  0.83876833     0.32600
H1036       H  0.95426388  0.43400120  0.75598432     0.43500
H1037       H  0.04685614  0.49885968  0.65959233     0.37000
H1038       H  0.95671626  0.56783634  0.74434068     0.33500
H1039       H  0.95902573  0.41837788  0.87426027     0.25300
H1040       H  0.87522739  0.52459193  0.71599847     0.31200
H1041       H  0.95629405  0.57862345  0.62484178     0.37100
H1042       H  0.06374446  0.43754292  0.83947151     0.31600
H1043       H  0.12296295  0.47550338  0.78484490     0.30500
H1044       H  0.12690997  0.50461087  0.71308427     0.32100
H1045       H  0.05120375  0.55448914  0.62235239     0.31100
H1046       H  0.01134348  0.39039003  0.78340609     0.35100
H1047       H  0.98913509  0.38748039  0.66717370     0.27800
H1048       H  0.98816139  0.59004510  0.88060996     0.32100
H1049       H  0.00340534  0.61341167  0.65597361     0.34900
H1050       H  0.10886218  0.49941921  0.81869195     0.27500
H1051       H  0.98654116  0.40628276  0.62360329     0.40400
H1052       H  0.90069736  0.45553862  0.80126545     0.30500
H1053       H  0.94140720  0.45126411  0.86593011     0.38100
H1054       H  0.06617572  0.56096505  0.66749733     0.29900
H1055       H  0.90160605  0.54892959  0.70030469     0.30000
H1056       H  0.99295148  0.61153892  0.83971282     0.30300
C1057       C  0.98023193  0.52659949  0.52245855    -0.09900
C1058       C  0.99420081  0.50027154  0.54459250     0.06300
C1059       C  0.00809972  0.47507976  0.52043519    -0.03700
C1060       C  0.00807278  0.47680910  0.47582262    -0.08100
C1061       C  0.99445699  0.50319271  0.45368258     0.05400
C1062       C  0.98012926  0.52821956  0.47763708    -0.03200
Br1063     Br  0.95868117  0.56439447  0.45142763    -0.02900
H1064       H  0.96905769  0.54609280  0.54012595     0.09300
H1065       H  0.01942744  0.45737004  0.45825459     0.07300
Br1066     Br  0.02930336  0.43828152  0.54551239    -0.03300
C1067       C  0.01860498  0.52128085  0.02315359    -0.09900
C1068       C  0.00241980  0.49622119  0.04488125     0.06300
C1069       C  0.98654637  0.47223550  0.02070097    -0.03700
C1070       C  0.98689784  0.47392592  0.97602921    -0.08100
C1071       C  0.00276985  0.49920685  0.95430983     0.05400
C1072       C  0.01909107  0.52287310  0.97848257    -0.03200
Br1073     Br  0.04418700  0.55674429  0.95276669    -0.02900
H1074       H  0.03131022  0.53972085  0.04110593     0.09300
H1075       H  0.97411801  0.45552000  0.95810596     0.07300
Br1076     Br  0.96216022  0.43779093  0.04629996    -0.03300
C1077       C  0.51992815  0.52154842  0.77637940    -0.09900
C1078       C  0.49598741  0.50412142  0.79816501     0.06300
C1079       C  0.47446758  0.48468884  0.77416971    -0.03700
C1080       C  0.47700817  0.48323309  0.72965442    -0.08100
C1081       C  0.50074393  0.50077737  0.70794117     0.05400
C1082       C  0.52261985  0.51982490  0.73176501    -0.03200
Br1083     Br  0.55808356  0.54196664  0.70536122    -0.02900
H1084       H  0.53733606  0.53566772  0.79424740     0.09300
H1085       H  0.45977429  0.46889618  0.71177489     0.07300
Br1086     Br  0.43998861  0.46064286  0.79976561    -0.03300
C1087       C  0.48940192  0.47542458  0.22991974    -0.09900
C1088       C  0.50640050  0.49984394  0.20840437     0.06300
C1089       C  0.52197403  0.52400829  0.23311100    -0.03700
C1090       C  0.51968000  0.52368469  0.27775744    -0.08100
C1091       C  0.50276474  0.49924614  0.29924025     0.05400
C1092       C  0.48744541  0.47486639  0.27462797    -0.03200
Br1093     Br  0.46185080  0.44093270  0.29928494    -0.02900
H1094       H  0.47687024  0.45696032  0.21180257     0.09300
H1095       H  0.53216044  0.54217409  0.29589988     0.07300
Br1096     Br  0.54902709  0.55686590  0.20886135    -0.03300
C1097       C  0.83485986  0.39126295  0.68638643    -0.09900
C1098       C  0.84386751  0.35853785  0.68532438     0.06300
C1099       C  0.87691569  0.35075710  0.68148697    -0.03700
C1100       C  0.90004539  0.37544989  0.68198002    -0.08100
C1101       C  0.89093421  0.40814218  0.68458469     0.05400
C1102       C  0.85779402  0.41588611  0.68504795    -0.03200
Br1103     Br  0.84180600  0.45944370  0.68084786    -0.02900
H1104       H  0.80960600  0.39786490  0.68721102     0.09300
H1105       H  0.92531001  0.36894860  0.68078740     0.07300
Br1106     Br  0.89214190  0.30753344  0.67158386    -0.03300
C1107       C  0.65828665  0.38730697  0.58379632    -0.09900
C1108       C  0.65032845  0.35524425  0.57201068     0.06300
C1109       C  0.61770490  0.34831580  0.56218380    -0.03700
C1110       C  0.59470359  0.37314594  0.56315363    -0.08100
C1111       C  0.60314523  0.40491862  0.57454859     0.05400
C1112       C  0.63515647  0.41164552  0.58592728    -0.03200
Br1113     Br  0.64834491  0.45314288  0.60736974    -0.02900
H1114       H  0.68269985  0.39370132  0.59268858     0.09300
H1115       H  0.57010331  0.36769337  0.55395196     0.07300
Br1116     Br  0.60191132  0.30600533  0.54835090    -0.03300
C1117       C  0.72549370  0.26407816  0.90436588    -0.09900
C1118       C  0.74814385  0.24452859  0.92546359     0.06300
C1119       C  0.77146136  0.22804596  0.90073566    -0.03700
C1120       C  0.77201836  0.23179594  0.85625454    -0.08100
C1121       C  0.74925697  0.25119278  0.83514477     0.05400
C1122       C  0.72578672  0.26750083  0.85982690    -0.03200
Br1123     Br  0.69423679  0.29605821  0.83524339    -0.02900
H1124       H  0.70778887  0.27733969  0.92269905     0.09300
H1125       H  0.78965569  0.21845054  0.83790364     0.07300
Br1126     Br  0.80169275  0.19795625  0.92502499    -0.03300
C1127       C  0.76685195  0.23075120  0.35712949    -0.09900
C1128       C  0.74918802  0.25444866  0.33504473     0.06300
C1129       C  0.73008869  0.27629611  0.35877989    -0.03700
C1130       C  0.72914504  0.27427642  0.40351243    -0.08100
C1131       C  0.74689742  0.25064420  0.42551574     0.05400
C1132       C  0.76549439  0.22843347  0.40179490    -0.03200
Br1133     Br  0.78718084  0.19266961  0.42855897    -0.02900
H1134       H  0.78080940  0.21315825  0.33946635     0.09300
H1135       H  0.71503509  0.29171113  0.42123467     0.07300
Br1136     Br  0.70608322  0.31052018  0.33208214    -0.03300
C1137       C  0.86718242  0.40919766  0.17425569    -0.09900
C1138       C  0.89786418  0.39988280  0.18794412     0.06300
C1139       C  0.90330860  0.36731570  0.19952628    -0.03700
C1140       C  0.87803200  0.34479431  0.19700380    -0.08100
C1141       C  0.84701316  0.35415596  0.18335562     0.05400
C1142       C  0.84188720  0.38713757  0.17210188    -0.03200
Br1143     Br  0.80111611  0.40552226  0.15538362    -0.02900
H1144       H  0.86260102  0.43430162  0.16609974     0.09300
H1145       H  0.88276336  0.31986246  0.20575799     0.07300
Br1146     Br  0.94392234  0.35276112  0.22193860    -0.03300
C1147       C  0.62417098  0.34577931  0.05728522    -0.09900
C1148       C  0.65688837  0.35459380  0.05873008     0.06300
C1149       C  0.66476754  0.38792433  0.05755088    -0.03700
C1150       C  0.64037568  0.41122478  0.05775460    -0.08100
C1151       C  0.60761478  0.40254991  0.05759830     0.05400
C1152       C  0.59970330  0.36922620  0.05601375    -0.03200
Br1153     Br  0.55647988  0.35371932  0.04848012    -0.02900
H1154       H  0.61744384  0.32044158  0.05760723     0.09300
H1155       H  0.64724556  0.43652760  0.05721802     0.07300
Br1156     Br  0.70820810  0.40382107  0.05303931    -0.03300
C1157       C  0.90488090  0.62721536  0.82170033    -0.09900
C1158       C  0.89467338  0.59492957  0.81751902     0.06300
C1159       C  0.86124510  0.58827992  0.81749881    -0.03700
C1160       C  0.83916686  0.61361366  0.81973870    -0.08100
C1161       C  0.84921960  0.64596528  0.82331860     0.05400
C1162       C  0.88264584  0.65259419  0.82494856    -0.03200
Br1163     Br  0.89998369  0.69505445  0.83422455    -0.02900
H1164       H  0.93036352  0.63290820  0.82186188     0.09300
H1165       H  0.81371066  0.60777572  0.81940185     0.07300
Br1166     Br  0.84348447  0.54524881  0.81699967    -0.03300
C1167       C  0.66344476  0.61274164  0.93912994    -0.09900
C1168       C  0.65407126  0.64525509  0.93544008     0.06300
C1169       C  0.62083139  0.65237657  0.93162826    -0.03700
C1170       C  0.59804965  0.62731988  0.93308538    -0.08100
C1171       C  0.60749571  0.59483498  0.93771473     0.05400
C1172       C  0.64086598  0.58772256  0.93983456    -0.03200
Br1173     Br  0.65814420  0.54453124  0.94161197    -0.02900
H1174       H  0.68878683  0.60656447  0.94091004     0.09300
H1175       H  0.57270596  0.63343855  0.93126810     0.07300
Br1176     Br  0.60457201  0.69518541  0.92167334    -0.03300
C1177       C  0.78036594  0.75956658  0.60673856    -0.09900
C1178       C  0.75343144  0.74621991  0.58561290     0.06300
C1179       C  0.72850710  0.73285328  0.61056041    -0.03700
C1180       C  0.73084591  0.73331211  0.65520858    -0.08100
C1181       C  0.75755507  0.74711718  0.67651240     0.05400
C1182       C  0.78257016  0.76034147  0.65144727    -0.03200
Br1183     Br  0.81936369  0.78186245  0.67550252    -0.02900
H1184       H  0.79970495  0.77025121  0.58828572     0.09300
H1185       H  0.71135954  0.72269681  0.67344435     0.07300
Br1186     Br  0.69126957  0.71227199  0.58612940    -0.03300
C1187       C  0.72870473  0.77465284  0.15398761    -0.09900
C1188       C  0.74884214  0.75287028  0.17622478     0.06300
C1189       C  0.76762369  0.73085576  0.15262203    -0.03700
C1190       C  0.76591754  0.73085571  0.10798699    -0.08100
C1191       C  0.74583081  0.75253211  0.08582216     0.05400
C1192       C  0.72745234  0.77495095  0.10917188    -0.03200
Br1193     Br  0.70281840  0.80823456  0.08133363    -0.02900
H1194       H  0.71444460  0.79206122  0.17154810     0.09300
H1195       H  0.78044627  0.71371344  0.09034718     0.07300
Br1196     Br  0.79485952  0.69909498  0.17930212    -0.03300
C1197       C  0.83394092  0.60902925  0.31266251    -0.09900
C1198       C  0.84343651  0.64141611  0.31753999     0.06300
C1199       C  0.87664048  0.64840255  0.32180439    -0.03700
C1200       C  0.89935530  0.62344005  0.31933528    -0.08100
C1201       C  0.88989652  0.59106552  0.31341911     0.05400
C1202       C  0.85653802  0.58399217  0.31094847    -0.03200
Br1203     Br  0.83946606  0.54079992  0.30749208    -0.02900
H1204       H  0.80855929  0.60301084  0.31085232     0.09300
H1205       H  0.92467500  0.62957414  0.32170840     0.07300
Br1206     Br  0.89278710  0.69079891  0.33483525    -0.03300
C1207       C  0.59748200  0.62864058  0.45010102    -0.09900
C1208       C  0.60638905  0.59606324  0.44569809     0.06300
C1209       C  0.63888635  0.58844808  0.43836064    -0.03700
C1210       C  0.66198833  0.61294078  0.43794455    -0.08100
C1211       C  0.65353442  0.64578646  0.44295434     0.05400
C1212       C  0.62051457  0.65346704  0.44835389    -0.03200
Br1213     Br  0.60428168  0.69680830  0.45108639    -0.02900
H1214       H  0.57245743  0.63482856  0.45551501     0.09300
H1215       H  0.68680427  0.60606174  0.43242540     0.07300
Br1216     Br  0.65282775  0.54528407  0.42520420    -0.03300
C1217       C  0.63740301  0.91310040  0.43634936    -0.09900
C1218       C  0.60589868  0.90288224  0.44522682     0.06300
C1219       C  0.60000783  0.86946803  0.45057828    -0.03700
C1220       C  0.62537565  0.84720597  0.44666667    -0.08100
C1221       C  0.65702649  0.85741175  0.43762037     0.05400
C1222       C  0.66278047  0.89110430  0.43265147    -0.03200
Br1223     Br  0.70451106  0.90996255  0.42264822    -0.02900
H1224       H  0.64247654  0.93869423  0.43264647     0.09300
H1225       H  0.62016586  0.82168547  0.45060499     0.07300
Br1226     Br  0.55853570  0.85280332  0.46625954    -0.03300
C1227       C  0.63392713  0.08882195  0.56884509    -0.09900
C1228       C  0.60195651  0.09903117  0.56282596     0.06300
C1229       C  0.59525612  0.13254098  0.56367196    -0.03700
C1230       C  0.62040424  0.15478908  0.56990100    -0.08100
C1231       C  0.65246188  0.14445767  0.57561232     0.05400
C1232       C  0.65897085  0.11084430  0.57502814    -0.03200
Br1233     Br  0.70145659  0.09258754  0.57976599    -0.02900
H1234       H  0.63969832  0.06324609  0.56818453     0.09300
H1235       H  0.61476235  0.18038355  0.57037875     0.07300
Br1236     Br  0.55296076  0.14981796  0.55406651    -0.03300
C1237       C  0.48303831  0.02112107  0.77423281    -0.09900
C1238       C  0.49695411  0.99463405  0.79593921     0.06300
C1239       C  0.51015767  0.96926305  0.77151362    -0.03700
C1240       C  0.50982745  0.97118858  0.72685021    -0.08100
C1241       C  0.49645789  0.99796199  0.70509162     0.05400
C1242       C  0.48241144  0.02288486  0.72952682    -0.03200
Br1243     Br  0.46014015  0.05898886  0.70451071    -0.02900
H1244       H  0.47211766  0.04059798  0.79221322     0.09300
H1245       H  0.52073756  0.95163715  0.70900781     0.07300
Br1246     Br  0.53082808  0.93216411  0.79654188    -0.03300
C1247       C  0.47933892  0.02021490  0.22704284    -0.09900
C1248       C  0.49942642  0.99823856  0.20587266     0.06300
C1249       C  0.51806711  0.97642025  0.23065041    -0.03700
C1250       C  0.51600861  0.97673423  0.27525719    -0.08100
C1251       C  0.49580230  0.99858088  0.29638949     0.05400
C1252       C  0.47716808  0.02041451  0.27168106    -0.03200
Br1253     Br  0.44646125  0.04955249  0.29628006    -0.02900
H1254       H  0.46441864  0.03670606  0.20869536     0.09300
H1255       H  0.53096795  0.96027192  0.29360955     0.07300
Br1256     Br  0.54841331  0.94681882  0.20628125    -0.03300
C1257       C  0.60461243  0.88468380  0.90653535    -0.09900
C1258       C  0.59944918  0.89619230  0.94807593     0.06300
C1259       C  0.61851872  0.88413923  0.98199112    -0.03700
C1260       C  0.64298653  0.86188994  0.97372940    -0.08100
C1261       C  0.64912725  0.85167304  0.93200230     0.05400
C1262       C  0.62953071  0.86278549  0.89826091    -0.03200
Br1263     Br  0.63580162  0.84847507  0.84067860    -0.02900
H1264       H  0.59000234  0.89360173  0.88029175     0.09300
H1265       H  0.65768480  0.85295545  0.99989113     0.07300
Br1266     Br  0.61169365  0.89636512  0.04038772    -0.03300
C1267       C  0.59183577  0.12612452  0.06517250    -0.09900
C1268       C  0.60091227  0.09337403  0.06679524     0.06300
C1269       C  0.63312088  0.08565544  0.07695575    -0.03700
C1270       C  0.65580744  0.11029449  0.08211568    -0.08100
C1271       C  0.64718561  0.14318953  0.07906744     0.05400
C1272       C  0.61442600  0.15092844  0.07176444    -0.03200
Br1273     Br  0.59818751  0.19433846  0.07355472    -0.02900
H1274       H  0.56701247  0.13253065  0.05850602     0.09300
H1275       H  0.68046781  0.10347763  0.08912688     0.07300
Br1276     Br  0.64731724  0.04218110  0.08801661    -0.03300
C1277       C  0.12047306  0.65611459  0.81168850    -0.09900
C1278       C  0.15268517  0.64785250  0.80380553     0.06300
C1279       C  0.16002358  0.61595388  0.79150425    -0.03700
C1280       C  0.13565805  0.59281244  0.78911997    -0.08100
C1281       C  0.10330548  0.60048413  0.79818311     0.05400
C1282       C  0.09582610  0.63294501  0.80892672    -0.03200
Br1283     Br  0.05293479  0.64824034  0.81898840    -0.02900
H1284       H  0.11450419  0.68060878  0.82109909     0.09300
H1285       H  0.14236948  0.56846929  0.77998232     0.07300
Br1286     Br  0.20268086  0.60257084  0.77569091    -0.03300
C1287       C  0.40306072  0.62863370  0.94363330    -0.09900
C1288       C  0.39459040  0.59584440  0.94055127     0.06300
C1289       C  0.36261676  0.58778549  0.92947273    -0.03700
C1290       C  0.33989255  0.61221262  0.92269664    -0.08100
C1291       C  0.34801823  0.64519888  0.92634305     0.05400
C1292       C  0.38035930  0.65321383  0.93655142    -0.03200
Br1293     Br  0.39635282  0.69670240  0.93911431    -0.02900
H1294       H  0.42754682  0.63523693  0.95200057     0.09300
H1295       H  0.31555656  0.60512904  0.91429862     0.07300
Br1296     Br  0.34861088  0.54402295  0.92045332    -0.03300
C1297       C  0.36820268  0.85753625  0.89849581    -0.09900
C1298       C  0.34557080  0.85316033  0.93123011     0.06300
C1299       C  0.34545351  0.87390940  0.96638149    -0.03700
C1300       C  0.36833198  0.89848548  0.96899903    -0.08100
C1301       C  0.39140280  0.90302474  0.93655421     0.05400
C1302       C  0.39105837  0.88237921  0.90077906    -0.03200
Br1303     Br  0.41906527  0.88856786  0.85277596    -0.02900
H1304       H  0.36741718  0.84218699  0.87047524     0.09300
H1305       H  0.36823580  0.91391660  0.99691719     0.07300
Br1306     Br  0.31424806  0.86950853  0.01112224    -0.03300
C1307       C  0.27408705  0.73538692  0.59410144    -0.09900
C1308       C  0.25090996  0.75352715  0.57201031     0.06300
C1309       C  0.22779341  0.77099533  0.59591692    -0.03700
C1310       C  0.22765403  0.76905877  0.64062362    -0.08100
C1311       C  0.25078040  0.75072096  0.66268960     0.05400
C1312       C  0.27433440  0.73389225  0.63873102    -0.03200
Br1313     Br  0.30676463  0.70684106  0.66401654    -0.02900
H1314       H  0.29180627  0.72160027  0.57648329     0.09300
H1315       H  0.20997085  0.78286688  0.65829204     0.07300
Br1316     Br  0.19751010  0.80024187  0.57017636    -0.03300
C1317       C  0.22182709  0.75918262  0.14104246    -0.09900
C1318       C  0.25044110  0.75095397  0.16249259     0.06300
C1319       C  0.27826172  0.74437669  0.13751840    -0.03700
C1320       C  0.27659891  0.74569211  0.09293526    -0.08100
C1321       C  0.24777983  0.75297818  0.07150352     0.05400
C1322       C  0.22018259  0.76034690  0.09637412    -0.03200
Br1323     Br  0.17937095  0.77335310  0.07273037    -0.02900
H1324       H  0.20039744  0.76502363  0.15912087     0.09300
H1325       H  0.29808514  0.74005380  0.07485814     0.07300
Br1326     Br  0.31953764  0.73186517  0.16042681    -0.03300
C1327       C  0.14572622  0.62325429  0.34163290    -0.09900
C1328       C  0.14763484  0.64979743  0.31327300     0.06300
C1329       C  0.12361862  0.65295435  0.28123984    -0.03700
C1330       C  0.09902999  0.62978234  0.27806253    -0.08100
C1331       C  0.09805947  0.60316486  0.30580236     0.05400
C1332       C  0.12154343  0.59995558  0.33771794    -0.03200
Br1333     Br  0.12207008  0.56325895  0.37546294    -0.02900
H1334       H  0.16345897  0.62017182  0.36676633     0.09300
H1335       H  0.08138138  0.63176213  0.25260151     0.07300
Br1336     Br  0.12413674  0.68605544  0.23822692    -0.03300
C1337       C  0.40556529  0.62674822  0.42843078    -0.09900
C1338       C  0.39621479  0.59473891  0.43774101     0.06300
C1339       C  0.36272382  0.58758089  0.43930760    -0.03700
C1340       C  0.34006032  0.61200388  0.43243477    -0.08100
C1341       C  0.34938658  0.64390162  0.42375579     0.05400
C1342       C  0.38260491  0.65114488  0.42123826    -0.03200
Br1343     Br  0.39817511  0.69305996  0.40466809    -0.02900
H1344       H  0.43088945  0.63295182  0.42671200     0.09300
H1345       H  0.31467985  0.60592487  0.43392110     0.07300
Br1346     Br  0.34498293  0.54514109  0.44916197    -0.03300
C1347       C  0.39042454  0.88902849  0.39858566    -0.09900
C1348       C  0.39873957  0.89862713  0.43998597     0.06300
C1349       C  0.38492088  0.88238113  0.47523570    -0.03700
C1350       C  0.36161458  0.85843698  0.46875587    -0.08100
C1351       C  0.35176135  0.85034530  0.42743707     0.05400
C1352       C  0.36708577  0.86505964  0.39210530    -0.03200
Br1353     Br  0.35784661  0.85250027  0.33441729    -0.02900
H1354       H  0.40156197  0.90065538  0.37130207     0.09300
H1355       H  0.35061925  0.84667773  0.49604320     0.07300
Br1356     Br  0.39790282  0.89098015  0.53289574    -0.03300
C1357       C  0.11874251  0.34558621  0.67711353    -0.09900
C1358       C  0.15101767  0.35573549  0.67479739     0.06300
C1359       C  0.15794210  0.38914962  0.67771042    -0.03700
C1360       C  0.13299237  0.41127014  0.68315833    -0.08100
C1361       C  0.10071179  0.40127362  0.68607902     0.05400
C1362       C  0.09365688  0.36788585  0.68251573    -0.03200
Br1363     Br  0.05098453  0.35045915  0.68701522    -0.02900
H1364       H  0.11290483  0.32009919  0.67449950     0.09300
H1365       H  0.13908776  0.43670259  0.68571152     0.07300
Br1366     Br  0.20084479  0.40676820  0.67712439    -0.03300
C1367       C  0.37975167  0.34092076  0.55698845    -0.09900
C1368       C  0.34726619  0.35070338  0.55784855     0.06300
C1369       C  0.34005815  0.38393645  0.55333929    -0.03700
C1370       C  0.36483316  0.40646730  0.55062348    -0.08100
C1371       C  0.39731586  0.39704948  0.55115608     0.05400
C1372       C  0.40473657  0.36372959  0.55346572    -0.03200
Br1373     Br  0.44800015  0.34771978  0.54946737    -0.02900
H1374       H  0.38581058  0.31550205  0.55982208     0.09300
H1375       H  0.35845217  0.43181896  0.54780488     0.07300
Br1376     Br  0.29705891  0.40081278  0.54851434    -0.03300
C1377       C  0.37357347  0.14930526  0.55752999    -0.09900
C1378       C  0.34139501  0.13961273  0.56324029     0.06300
C1379       C  0.33460972  0.10608350  0.56612376    -0.03700
C1380       C  0.35972150  0.08355194  0.56525650    -0.08100
C1381       C  0.39196238  0.09323721  0.56053912     0.05400
C1382       C  0.39863601  0.12662726  0.55559943    -0.03200
Br1383     Br  0.44068141  0.14305600  0.54219735    -0.02900
H1384       H  0.37943602  0.17478050  0.55481858     0.09300
H1385       H  0.35384449  0.05804593  0.56749910     0.07300
Br1386     Br  0.29165068  0.08875452  0.56874459    -0.03300
C1387       C  0.27343805  0.26750172  0.84915029    -0.09900
C1388       C  0.24699951  0.25335156  0.82772756     0.06300
C1389       C  0.22257035  0.23879693  0.85250791    -0.03700
C1390       C  0.22470897  0.23925577  0.89719331    -0.08100
C1391       C  0.25114993  0.25339000  0.91850493     0.05400
C1392       C  0.27578070  0.26754101  0.89381597    -0.03200
Br1393     Br  0.31237446  0.28888135  0.91879745    -0.02900
H1394       H  0.29253663  0.27889627  0.83100681     0.09300
H1395       H  0.20568739  0.22784677  0.91548251     0.07300
Br1396     Br  0.18695551  0.21563134  0.82791615    -0.03300
C1397       C  0.27588250  0.25524215  0.34951628    -0.09900
C1398       C  0.24753391  0.24622728  0.32760193     0.06300
C1399       C  0.22021788  0.23759345  0.35189361    -0.03700
C1400       C  0.22206506  0.23744166  0.39650346    -0.08100
C1401       C  0.25049588  0.24623212  0.41839460     0.05400
C1402       C  0.27754762  0.25565704  0.39412442    -0.03200
Br1403     Br  0.31699446  0.27138052  0.41888201    -0.02900
H1404       H  0.29703016  0.26269185  0.33183596     0.09300
H1405       H  0.20083408  0.23023213  0.41418834     0.07300
Br1406     Br  0.17970726  0.22487922  0.32722716    -0.03300
C1407       C  0.12293941  0.34471175  0.18967601    -0.09900
C1408       C  0.15553065  0.35382091  0.19146449     0.06300
C1409       C  0.16308186  0.38631162  0.20103647    -0.03700
C1410       C  0.13847455  0.40918531  0.20518551    -0.08100
C1411       C  0.10570986  0.40058377  0.20158442     0.05400
C1412       C  0.09817692  0.36742790  0.19534142    -0.03200
Br1413     Br  0.05518794  0.35046289  0.19717264    -0.02900
H1414       H  0.11657822  0.31971143  0.18350291     0.09300
H1415       H  0.14526706  0.43401626  0.21161950     0.07300
Br1416     Br  0.20632237  0.40083371  0.21197695    -0.03300
C1417       C  0.39168298  0.39136974  0.10138319    -0.09900
C1418       C  0.40134025  0.39868398  0.05963321     0.06300
C1419       C  0.38767607  0.38148881  0.02520761    -0.03700
C1420       C  0.36381375  0.35826997  0.03273148    -0.08100
C1421       C  0.35291962  0.35215444  0.07428262     0.05400
C1422       C  0.36754060  0.36838882  0.10891272    -0.03200
Br1423     Br  0.35623483  0.35921359  0.16709127    -0.02900
H1424       H  0.40236177  0.40414323  0.12809905     0.09300
H1425       H  0.35313904  0.34556124  0.00594977     0.07300
Br1426     Br  0.40120859  0.38836625  0.96745129    -0.03300
C1427       C  0.33551131  0.11133947  0.05967527    -0.09900
C1428       C  0.34489820  0.14408838  0.05760021     0.06300
C1429       C  0.37835076  0.15113308  0.05683206    -0.03700
C1430       C  0.40099395  0.12591110  0.05740969    -0.08100
C1431       C  0.39134126  0.09338231  0.05946014     0.05400
C1432       C  0.35810667  0.08632972  0.06135486    -0.03200
Br1433     Br  0.34177583  0.04318645  0.06935398    -0.02900
H1434       H  0.31023105  0.10494614  0.06137179     0.09300
H1435       H  0.42639332  0.13182341  0.05562653     0.07300
Br1436     Br  0.39561836  0.19415004  0.05757679    -0.03300
C1437       C  0.88223808  0.11591475  0.73164801    -0.09900
C1438       C  0.89930137  0.10397437  0.69625193     0.06300
C1439       C  0.89342866  0.11741179  0.65552287    -0.03700
C1440       C  0.86993414  0.14140560  0.65064109    -0.08100
C1441       C  0.85261381  0.15279436  0.68593185     0.05400
C1442       C  0.85915155  0.14029738  0.72676055    -0.03200
Br1443     Br  0.83525408  0.15404246  0.77589280    -0.02900
H1444       H  0.88657768  0.10590460  0.76316910     0.09300
H1445       H  0.86462677  0.15073774  0.61900539     0.07300
Br1446     Br  0.91471534  0.10221714  0.60506625    -0.03300
C1447       C  0.84193433  0.88809920  0.82425823    -0.09900
C1448       C  0.85186059  0.85597640  0.83036313     0.06300
C1449       C  0.88516819  0.84908364  0.83146279    -0.03700
C1450       C  0.90752803  0.87400147  0.82444785    -0.08100
C1451       C  0.89743568  0.90610603  0.81709205     0.05400
C1452       C  0.86406082  0.91303949  0.81845280    -0.03200
Br1453     Br  0.84622471  0.95595999  0.81561348    -0.02900
H1454       H  0.81651142  0.89407139  0.82434535     0.09300
H1455       H  0.93295361  0.86810630  0.82454224     0.07300
Br1456     Br  0.90180028  0.80692883  0.84509895    -0.03300
C1457       C  0.12543716  0.84937236  0.79793354    -0.09900
C1458       C  0.15768740  0.85911217  0.80325523     0.06300
C1459       C  0.16442247  0.89256176  0.80759789    -0.03700
C1460       C  0.13924840  0.91482111  0.80909165    -0.08100
C1461       C  0.10703809  0.90503908  0.80490581     0.05400
C1462       C  0.10026282  0.87195629  0.79825090    -0.03200
Br1463     Br  0.05768284  0.85631714  0.78606874    -0.02900
H1464       H  0.11960442  0.82398242  0.79414410     0.09300
H1465       H  0.14500881  0.94029345  0.81237848     0.07300
Br1466     Br  0.20722805  0.91041487  0.80914504    -0.03300
C1467       C  0.09587625  0.12740656  0.68634665    -0.09900
C1468       C  0.10523126  0.09500306  0.68101231     0.06300
C1469       C  0.13832817  0.08781167  0.67775489    -0.03700
C1470       C  0.16104500  0.11254907  0.68056396    -0.08100
C1471       C  0.15198071  0.14517772  0.68580660     0.05400
C1472       C  0.11869235  0.15236718  0.68894061    -0.03200
Br1473     Br  0.10183344  0.19512243  0.69649888    -0.02900
H1474       H  0.07060794  0.13332605  0.69002851     0.09300
H1475       H  0.18620535  0.10598865  0.67764673     0.07300
Br1476     Br  0.15449565  0.04488665  0.66775390    -0.03300
C1477       C  0.98026500  0.97519137  0.52206107    -0.09900
C1478       C  0.99806460  0.99905842  0.54400902     0.06300
C1479       C  0.01704917  0.02077271  0.51997768    -0.03700
C1480       C  0.01809957  0.01810174  0.47539226    -0.08100
C1481       C  0.00032583  0.99427744  0.45347590     0.05400
C1482       C  0.98084299  0.97298622  0.47732884    -0.03200
Br1483     Br  0.95203971  0.94282445  0.45047330    -0.02900
H1484       H  0.96509901  0.95859062  0.53977740     0.09300
H1485       H  0.03293699  0.03495905  0.45759812     0.07300
Br1486     Br  0.04325464  0.05372047  0.54586173    -0.03300
C1487       C  0.01822246  0.02411362  0.02334652    -0.09900
C1488       C  0.99499934  0.00497064  0.04387648     0.06300
C1489       C  0.97447069  0.98542169  0.01866752    -0.03700
C1490       C  0.97827437  0.98436934  0.97418124    -0.08100
C1491       C  0.00196271  0.00298737  0.95374206     0.05400
C1492       C  0.02178834  0.02335708  0.97882234    -0.03200
Br1493     Br  0.05543825  0.04931879  0.95445172    -0.02900
H1494       H  0.03441597  0.03897027  0.04215343     0.09300
H1495       H  0.96205130  0.96957027  0.95533285     0.07300
Br1496     Br  0.93946758  0.96128138  0.04293252    -0.03300
C1497       C  0.87545901  0.15375580  0.19995489    -0.09900
C1498       C  0.84305237  0.14398559  0.19740347     0.06300
C1499       C  0.83578944  0.11066620  0.20129643    -0.03700
C1500       C  0.86060371  0.08810510  0.20478507    -0.08100
C1501       C  0.89309660  0.09757816  0.20549545     0.05400
C1502       C  0.90037832  0.13105912  0.20421751    -0.03200
Br1503     Br  0.94324611  0.14795894  0.21007768    -0.02900
H1504       H  0.88160069  0.17920115  0.19783697     0.09300
H1505       H  0.85423733  0.06271303  0.20679293     0.07300
Br1506     Br  0.79268318  0.09369766  0.20416232    -0.03300
C1507       C  0.89353109  0.88821348  0.34838770    -0.09900
C1508       C  0.90318252  0.89356911  0.30614795     0.06300
C1509       C  0.89012843  0.87436161  0.27319802    -0.03700
C1510       C  0.86674226  0.85110093  0.28264580    -0.08100
C1511       C  0.85562553  0.84716690  0.32452497     0.05400
C1512       C  0.86984286  0.86524761  0.35778889    -0.03200
Br1513     Br  0.85860167  0.85874836  0.41663306    -0.02900
H1514       H  0.90376808  0.90259029  0.37396043     0.09300
H1515       H  0.85633676  0.83691917  0.25699389     0.07300
Br1516     Br  0.90338176  0.87894524  0.21489078    -0.03300
C1517       C  0.14250466  0.86994261  0.34790907    -0.09900
C1518       C  0.15763551  0.85797344  0.31106171     0.06300
C1519       C  0.14861007  0.87013325  0.27087815    -0.03700
C1520       C  0.12557745  0.89484894  0.26821184    -0.08100
C1521       C  0.11026228  0.90675128  0.30507057     0.05400
C1522       C  0.11854023  0.89368682  0.34514478    -0.03200
Br1523     Br  0.09880341  0.90824584  0.39697420    -0.02900
H1524       H  0.14923696  0.86054622  0.37903663     0.09300
H1525       H  0.11909956  0.90439955  0.23708314     0.07300
Br1526     Br  0.16747543  0.85409175  0.21923131    -0.03300
C1527       C  0.13090912  0.08861548  0.16964247    -0.09900
C1528       C  0.10037851  0.09884813  0.18265900     0.06300
C1529       C  0.09529315  0.13196066  0.19118002    -0.03700
C1530       C  0.12100080  0.15384769  0.18770045    -0.08100
C1531       C  0.15198229  0.14348042  0.17551930     0.05400
C1532       C  0.15648479  0.11022105  0.16576262    -0.03200
Br1533     Br  0.19657297  0.09111050  0.14809349    -0.02900
H1534       H  0.13510298  0.06320720  0.16309858     0.09300
H1535       H  0.11660275  0.17915350  0.19449538     0.07300
Br1536     Br  0.05461602  0.14848873  0.21035858    -0.03300
loop_ 
_geom_bond_atom_site_label_1 
_geom_bond_atom_site_label_2 
_geom_bond_distance 
_geom_bond_site_symmetry_2 
_ccdc_geom_bond_type 
Zr1           O2   2.442       .  S
Zr1           O3   2.470       .  S
Zr1           O4   2.453   1_655  S
Zr1           O7   2.456       .  S
Zr1           O9   2.382   1_655  S
Zr1          O10   2.390   1_545  S
Zr1          O11   2.419   1_655  S
Zr1          O12   2.397       .  S
O2           H58   0.990   1_655  S
O2           H66   0.990       .  S
O3           C23   1.289       .  A
O4           C25   1.285       .  A
O5          Zr15   2.426   1_545  S
O5           C24   1.286       .  A
O6          Zr14   2.408       .  S
O6           C25   1.281       .  A
O7           C24   1.288       .  A
O8          Zr16   2.409   1_655  S
O8           C23   1.278   1_565  A
O9          Zr14   2.398       .  S
O9          Zr16   2.384   1_545  S
O10         Zr15   2.393       .  S
O10         Zr16   2.380   1_655  S
O10          H45   0.965       .  S
O11         Zr14   2.396       .  S
O11         Zr31   2.388   1_455  S
O11          H48   0.965       .  S
O12         Zr15   2.377   1_545  S
O12         Zr31   2.378       .  S
Zr13         O38   2.443       .  S
Zr13         O32   2.473       .  S
Zr13         O40   2.453   1_455  S
Zr13         O28   2.467       .  S
Zr13         O19   2.412   1_455  S
Zr13         O20   2.417       .  S
Zr13         O21   2.381   1_565  S
Zr13         O22   2.388   1_455  S
Zr14         O33   2.433       .  S
Zr14         O26   2.434   1_545  S
Zr14         O27   2.422   1_545  S
Zr14         O20   2.394   1_545  S
Zr14         O21   2.392       .  S
Zr15         O17   2.435   1_565  S
Zr15         O39   2.440       .  S
Zr15         O41   2.415       .  S
Zr15         O19   2.389       .  S
Zr15         O22   2.400       .  S
Zr16         O42   2.433   1_455  S
Zr16         O43   2.436       .  S
Zr16         O18   2.438       .  S
Zr16         O19   2.389   1_455  S
Zr16         O20   2.381       .  S
O17          H54   0.990   1_545  S
O18          H49   0.990       .  S
O18          H63   0.990       .  S
O20          H46   0.963       .  S
O21         Zr31   2.385   1_455  S
O22         Zr31   2.383   1_565  S
O22          H47   0.966       .  S
C23        C1488   1.486       .  S
C24        C1501   1.487       .  S
C25        C1528   1.475       .  S
O26          H62   0.990       .  S
O27          C29   1.283       .  A
O28          C29   1.290       .  A
C29        C1521   1.477       .  S
O30         Zr31   2.439       .  S
O30          H59   0.990       .  S
Zr31         O34   2.438   1_655  S
Zr31         O35   2.440       .  S
Zr31         O36   2.399       .  S
O32          C37   1.291       .  A
O33          H50   0.990       .  S
O33          H65   0.990       .  S
O34          H51   0.990       .  S
O35          H55   0.990       .  S
O35          H64   0.990       .  S
O36          C37   1.277   1_645  A
C37        C1481   1.487       .  S
O38          H57   0.989   1_455  S
O38          H61   0.992       .  S
O39          H53   0.990       .  S
O39          H60   0.990       .  S
O40          C44   1.286       .  A
O41          C44   1.281       .  A
O42          H52   0.989       .  S
O43          H56   0.990       .  S
C44        C1508   1.468       .  S
Zr67         O68   2.441       .  S
Zr67         O69   2.466       .  S
Zr67         O70   2.462   1_655  S
Zr67         O73   2.447       .  S
Zr67         O75   2.380   1_645  S
Zr67         O76   2.387       .  S
Zr67         O77   2.413   1_655  S
Zr67         O78   2.403       .  S
O68         H124   0.990   1_655  S
O68         H132   0.991   1_655  S
O69          C89   1.289   1_545  A
O70          C91   1.289       .  A
O71         Zr81   2.420       .  S
O71          C90   1.283       .  A
O72         Zr80   2.409   1_545  S
O72          C91   1.279       .  A
O73          C90   1.286       .  A
O74         Zr82   2.403       .  S
O74          C89   1.278       .  A
O75         Zr80   2.393       .  S
O75         Zr82   2.387   1_455  S
O76         Zr81   2.399       .  S
O76         Zr82   2.380   1_545  S
O76         H111   0.966       .  S
O77         Zr80   2.393   1_545  S
O77         Zr97   2.377       .  S
O77         H114   0.964       .  S
O78         Zr81   2.383       .  S
O78         Zr97   2.390   1_655  S
Zr79        O104   2.442   1_455  S
Zr79         O98   2.470       .  S
Zr79        O106   2.448   1_455  S
Zr79         O94   2.473       .  S
Zr79         O85   2.403   1_455  S
Zr79         O86   2.417       .  S
Zr79         O87   2.379   1_565  S
Zr79         O88   2.387   1_465  S
Zr80         O99   2.437   1_565  S
Zr80         O92   2.437       .  S
Zr80         O93   2.395       .  S
Zr80         O86   2.399       .  S
Zr80         O87   2.399   1_565  S
Zr81         O83   2.436       .  S
Zr81        O105   2.438   1_545  S
Zr81        O107   2.416   1_545  S
Zr81         O85   2.384   1_545  S
Zr81         O88   2.393       .  S
Zr82        O108   2.436       .  S
Zr82        O109   2.436       .  S
Zr82         O84   2.439   1_655  S
Zr82         O85   2.383       .  S
Zr82         O86   2.381   1_655  S
O83         H120   0.990       .  S
O84         H115   0.990       .  S
O84         H129   0.990       .  S
O86         H112   0.964       .  S
O87         Zr97   2.383       .  S
O88         Zr97   2.378   1_655  S
O88         H113   0.966       .  S
C89        C1478   1.489       .  S
C90        C1438   1.476       .  S
C91        C1468   1.480       .  S
O92         H128   0.990       .  S
O93          C95   1.279       .  A
O94          C95   1.290       .  A
C95        C1461   1.477       .  S
O96         Zr97   2.438       .  S
O96         H125   0.991       .  S
Zr97        O100   2.437       .  S
Zr97        O101   2.439   1_455  S
Zr97        O102   2.403       .  S
O98         C103   1.290   1_565  A
O99         H116   0.990       .  S
O99         H131   0.990       .  S
O100        H117   0.990       .  S
O101        H121   0.990       .  S
O101        H130   0.990       .  S
O102        C103   1.277       .  A
C103       C1491   1.484       .  S
O104        H123   0.990   1_655  S
O104        H127   0.990   1_655  S
O105        H119   0.990       .  S
O105        H126   0.990       .  S
O106        C110   1.287       .  A
O107        C110   1.281       .  A
O108        H118   0.990       .  S
O109        H122   0.990       .  S
C110       C1451   1.487       .  S
Zr133       O134   2.441       .  S
Zr133       O135   2.466   1_554  S
Zr133       O136   2.475       .  S
Zr133       O139   2.449       .  S
Zr133       O141   2.378       .  S
Zr133       O142   2.392       .  S
Zr133       O143   2.418       .  S
Zr133       O144   2.412       .  S
O134        H190   0.990   1_554  S
O134        H198   0.989       .  S
O135        C155   1.288       .  A
O136        C157   1.290       .  A
O137       Zr147   2.419       .  S
O137        C156   1.282       .  A
O138       Zr146   2.418       .  S
O138        C157   1.283       .  A
O139        C156   1.286       .  A
O140       Zr148   2.395   1_556  S
O140        C155   1.276       .  A
O141       Zr146   2.393       .  S
O141       Zr148   2.388       .  S
O142       Zr147   2.396       .  S
O142       Zr148   2.377       .  S
O142        H177   0.966       .  S
O143       Zr146   2.393       .  S
O143       Zr163   2.381       .  S
O143        H180   0.964       .  S
O144       Zr147   2.387       .  S
O144       Zr163   2.391       .  S
Zr145       O170   2.443       .  S
Zr145       O164   2.455       .  S
Zr145       O172   2.453       .  S
Zr145       O160   2.467       .  S
Zr145       O151   2.406       .  S
Zr145       O152   2.411       .  S
Zr145       O153   2.383       .  S
Zr145       O154   2.390       .  S
Zr146       O165   2.435       .  S
Zr146       O158   2.435       .  S
Zr146       O159   2.406       .  S
Zr146       O152   2.399       .  S
Zr146       O153   2.394       .  S
Zr147       O149   2.434       .  S
Zr147       O171   2.435       .  S
Zr147       O173   2.420       .  S
Zr147       O151   2.389       .  S
Zr147       O154   2.394       .  S
Zr148       O174   2.435       .  S
Zr148       O175   2.436       .  S
Zr148       O150   2.436       .  S
Zr148       O151   2.386       .  S
Zr148       O152   2.377       .  S
O149        H186   0.990       .  S
O150        H181   0.990   1_554  S
O150        H195   0.990       .  S
O152        H178   0.964       .  S
O153       Zr163   2.383       .  S
O154       Zr163   2.379       .  S
O154        H179   0.966       .  S
C155       C1391   1.488       .  S
C156       C1421   1.473       .  S
C157       C1428   1.496       .  S
O158        H194   0.990       .  S
O159        C161   1.278       .  A
O160        C161   1.291       .  A
C161       C1531   1.490       .  S
O162       Zr163   2.439       .  S
O162        H191   0.990       .  S
Zr163       O166   2.439       .  S
Zr163       O167   2.438       .  S
Zr163       O168   2.399       .  S
O164        C169   1.286       .  A
O165        H182   0.990       .  S
O165        H197   0.990       .  S
O166        H183   0.990       .  S
O167        H187   0.990       .  S
O167        H196   0.989       .  S
O168        C169   1.278       .  A
C169       C1398   1.490       .  S
O170        H189   0.990       .  S
O170        H193   0.991       .  S
O171        H185   0.990       .  S
O171        H192   0.990       .  S
O172        C176   1.287       .  A
O173        C176   1.282       .  A
O174        H184   0.990   1_554  S
O175        H188   0.990       .  S
C176       C1408   1.487       .  S
Zr199       O200   2.442       .  S
Zr199       O201   2.455       .  S
Zr199       O202   2.468       .  S
Zr199       O205   2.448       .  S
Zr199       O207   2.379       .  S
Zr199       O208   2.390       .  S
Zr199       O209   2.410       .  S
Zr199       O210   2.404       .  S
O200        H256   0.990       .  S
O200        H264   0.991       .  S
O201        C221   1.286       .  A
O202        C223   1.290       .  A
O203       Zr213   2.412       .  S
O203        C222   1.281       .  A
O204       Zr212   2.410       .  S
O204        C223   1.279       .  A
O205        C222   1.287       .  A
O206       Zr214   2.393       .  S
O206        C221   1.277       .  A
O207       Zr212   2.396       .  S
O207       Zr214   2.385       .  S
O208       Zr213   2.391       .  S
O208       Zr214   2.376       .  S
O208        H243   0.966       .  S
O209       Zr212   2.393       .  S
O209       Zr229   2.383       .  S
O209        H246   0.965       .  S
O210       Zr213   2.381       .  S
O210       Zr229   2.384       .  S
Zr211       O236   2.439       .  S
Zr211       O230   2.467       .  S
Zr211       O238   2.451       .  S
Zr211       O226   2.472       .  S
Zr211       O217   2.402       .  S
Zr211       O218   2.417       .  S
Zr211       O219   2.380       .  S
Zr211       O220   2.389       .  S
Zr212       O231   2.437       .  S
Zr212       O224   2.434       .  S
Zr212       O225   2.404       .  S
Zr212       O218   2.398       .  S
Zr212       O219   2.390       .  S
Zr213       O215   2.435       .  S
Zr213       O237   2.439       .  S
Zr213       O239   2.404       .  S
Zr213       O217   2.381       .  S
Zr213       O220   2.392       .  S
Zr214       O240   2.436       .  S
Zr214       O241   2.436       .  S
Zr214       O216   2.438       .  S
Zr214       O217   2.382       .  S
Zr214       O218   2.377       .  S
O215        H252   0.990       .  S
O216        H247   0.990       .  S
O216        H261   0.990       .  S
O218        H244   0.963       .  S
O219       Zr229   2.382       .  S
O220       Zr229   2.381       .  S
O220        H245   0.966       .  S
C221       C1401   1.489       .  S
C222       C1368   1.482       .  S
C223       C1378   1.489       .  S
O224        H260   0.990       .  S
O225        C227   1.282       .  A
O226        C227   1.290       .  A
C227       C1471   1.492       .  S
O228       Zr229   2.437       .  S
O228        H257   0.990       .  S
Zr229       O232   2.436       .  S
Zr229       O233   2.438       .  S
Zr229       O234   2.400       .  S
O230        C235   1.289       .  A
O231        H248   0.990       .  S
O231        H263   0.990       .  S
O232        H249   0.990       .  S
O233        H253   0.990       .  S
O233        H262   0.990       .  S
O234        C235   1.278       .  A
C235       C1388   1.493       .  S
O236        H255   0.990       .  S
O236        H259   0.989       .  S
O237        H251   0.990       .  S
O237        H258   0.989       .  S
O238        C242   1.287       .  A
O239        C242   1.278       .  A
O240        H250   0.990       .  S
O241        H254   0.990       .  S
C242       C1358   1.481       .  S
Zr265       O266   2.442       .  S
Zr265       O267   2.470       .  S
Zr265       O268   2.468       .  S
Zr265       O271   2.451       .  S
Zr265       O273   2.378       .  S
Zr265       O274   2.392       .  S
Zr265       O275   2.415       .  S
Zr265       O276   2.407       .  S
O266        H322   0.990       .  S
O266        H330   0.991       .  S
O267        C287   1.291       .  A
O268        C289   1.289       .  A
O269       Zr279   2.431       .  S
O269        C288   1.286       .  A
O270       Zr278   2.420       .  S
O270        C289   1.282       .  A
O271        C288   1.287       .  A
O272       Zr280   2.396       .  S
O272        C287   1.276       .  A
O273       Zr278   2.396       .  S
O273       Zr280   2.387       .  S
O274       Zr279   2.400       .  S
O274       Zr280   2.381       .  S
O274        H309   0.966       .  S
O275       Zr278   2.397       .  S
O275       Zr295   2.374       .  S
O275        H312   0.962       .  S
O276       Zr279   2.380       .  S
O276       Zr295   2.384       .  S
Zr277       O302   2.441       .  S
Zr277       O296   2.465       .  S
Zr277       O304   2.462       .  S
Zr277       O292   2.477       .  S
Zr277       O283   2.406       .  S
Zr277       O284   2.412       .  S
Zr277       O285   2.381       .  S
Zr277       O286   2.395       .  S
Zr278       O297   2.436       .  S
Zr278       O290   2.435       .  S
Zr278       O291   2.406       .  S
Zr278       O284   2.403       .  S
Zr278       O285   2.398       .  S
Zr279       O281   2.436       .  S
Zr279       O303   2.439       .  S
Zr279       O305   2.423       .  S
Zr279       O283   2.384       .  S
Zr279       O286   2.397       .  S
Zr280       O306   2.436       .  S
Zr280       O307   2.437       .  S
Zr280       O282   2.435       .  S
Zr280       O283   2.379       .  S
Zr280       O284   2.380       .  S
O281        H318   0.990       .  S
O282        H313   0.990       .  S
O282        H327   0.990       .  S
O284        H310   0.963       .  S
O285       Zr295   2.386       .  S
O286       Zr295   2.378       .  S
O286        H311   0.966       .  S
C287       C1308   1.487       .  S
C288       C1341   1.484       .  S
C289       C1351   1.471       .  S
O290        H326   0.990       .  S
O291        C293   1.280       .  A
O292        C293   1.290       .  A
C293       C1518   1.472       .  S
O294       Zr295   2.439       .  S
O294        H323   0.990       .  S
Zr295       O298   2.436       .  S
Zr295       O299   2.439       .  S
Zr295       O300   2.393       .  S
O296        C301   1.290       .  A
O297        H314   0.990       .  S
O297        H329   0.989       .  S
O298        H315   0.990       .  S
O299        H319   0.990       .  S
O299        H328   0.990       .  S
O300        C301   1.273       .  A
C301       C1318   1.495       .  S
O302        H321   0.991       .  S
O302        H325   0.990       .  S
O303        H317   0.990       .  S
O303        H324   0.990       .  S
O304        C308   1.290       .  A
O305        C308   1.285       .  A
O306        H316   0.990       .  S
O307        H320   0.990       .  S
C308       C1328   1.491       .  S
Zr331       O332   2.441       .  S
Zr331       O333   2.459   1_556  S
Zr331       O334   2.451       .  S
Zr331       O337   2.458       .  S
Zr331       O339   2.379       .  S
Zr331       O340   2.389       .  S
Zr331       O341   2.418       .  S
Zr331       O342   2.404       .  S
O332        H388   0.990   1_556  S
O332        H396   0.990       .  S
O333        C353   1.288       .  A
O334        C355   1.285       .  A
O335       Zr345   2.419       .  S
O335        C354   1.284       .  A
O336       Zr344   2.408       .  S
O336        C355   1.278       .  A
O337        C354   1.288       .  A
O338       Zr346   2.395   1_554  S
O338        C353   1.274       .  A
O339       Zr344   2.392       .  S
O339       Zr346   2.382       .  S
O340       Zr345   2.394       .  S
O340       Zr346   2.386       .  S
O340        H375   0.966       .  S
O341       Zr344   2.391       .  S
O341       Zr361   2.371       .  S
O341        H378   0.963       .  S
O342       Zr345   2.381       .  S
O342       Zr361   2.390       .  S
Zr343       O368   2.440       .  S
Zr343       O362   2.464       .  S
Zr343       O370   2.455       .  S
Zr343       O358   2.467       .  S
Zr343       O349   2.406       .  S
Zr343       O350   2.413       .  S
Zr343       O351   2.381       .  S
Zr343       O352   2.387       .  S
Zr344       O363   2.438       .  S
Zr344       O356   2.437       .  S
Zr344       O357   2.401       .  S
Zr344       O350   2.400       .  S
Zr344       O351   2.396       .  S
Zr345       O347   2.436       .  S
Zr345       O369   2.437       .  S
Zr345       O371   2.411       .  S
Zr345       O349   2.386       .  S
Zr345       O352   2.392       .  S
Zr346       O372   2.436       .  S
Zr346       O373   2.435       .  S
Zr346       O348   2.437       .  S
Zr346       O349   2.382       .  S
Zr346       O350   2.378       .  S
O347        H384   0.990       .  S
O348        H379   0.990       .  S
O348        H393   0.990       .  S
O350        H376   0.964       .  S
O351       Zr361   2.384       .  S
O352       Zr361   2.376       .  S
O352        H377   0.966       .  S
C353       C1321   1.493       .  S
C354       C1291   1.495       .  S
C355       C1298   1.455       .  S
O356        H392   0.990       .  S
O357        C359   1.278       .  A
O358        C359   1.290       .  A
C359       C1458   1.485       .  S
O360       Zr361   2.441       .  S
O360        H389   0.990       .  S
Zr361       O364   2.438       .  S
Zr361       O365   2.439       .  S
Zr361       O366   2.400       .  S
O362        C367   1.290       .  A
O363        H380   0.991       .  S
O363        H395   0.990       .  S
O364        H381   0.990       .  S
O365        H385   0.989       .  S
O365        H394   0.990       .  S
O366        C367   1.277       .  A
C367       C1311   1.486       .  S
O368        H387   0.991       .  S
O368        H391   0.990       .  S
O369        H383   0.990       .  S
O369        H390   0.990       .  S
O370        C374   1.289       .  A
O371        C374   1.281       .  A
O372        H382   0.990       .  S
O373        H386   0.990       .  S
C374       C1278   1.477       .  S
Zr397       O398   2.441       .  S
Zr397       O399   2.459       .  S
Zr397       O400   2.461       .  S
Zr397       O403   2.450       .  S
Zr397       O405   2.375       .  S
Zr397       O406   2.389       .  S
Zr397       O407   2.417   1_556  S
Zr397       O408   2.403   1_556  S
O398        H454   0.990       .  S
O398        H462   0.990       .  S
O399        C419   1.287       .  A
O400        C421   1.288       .  A
O401       Zr411   2.414   1_556  S
O401        C420   1.282       .  A
O402       Zr410   2.401       .  S
O402        C421   1.279       .  A
O403        C420   1.287       .  A
O404       Zr412   2.405       .  S
O404        C419   1.278   1_545  A
O405       Zr410   2.393       .  S
O405       Zr412   2.380   1_565  S
O406       Zr411   2.395   1_556  S
O406       Zr412   2.378   1_565  S
O406        H441   0.966       .  S
O407       Zr410   2.398   1_554  S
O407       Zr427   2.385       .  S
O407        H444   0.964       .  S
O408       Zr411   2.381       .  S
O408       Zr427   2.381       .  S
Zr409       O434   2.441       .  S
Zr409       O428   2.468       .  S
Zr409       O436   2.448       .  S
Zr409       O424   2.474       .  S
Zr409       O415   2.411   1_554  S
Zr409       O416   2.413   1_554  S
Zr409       O417   2.381   1_545  S
Zr409       O418   2.386   1_545  S
Zr410       O429   2.437   1_556  S
Zr410       O422   2.434   1_565  S
Zr410       O423   2.405   1_566  S
Zr410       O416   2.397   1_565  S
Zr410       O417   2.397   1_556  S
Zr411       O413   2.434       .  S
Zr411       O435   2.435   1_564  S
Zr411       O437   2.420   1_565  S
Zr411       O415   2.385   1_564  S
Zr411       O418   2.392       .  S
Zr412       O438   2.437       .  S
Zr412       O439   2.434       .  S
Zr412       O414   2.437       .  S
Zr412       O415   2.394       .  S
Zr412       O416   2.383       .  S
O413        H450   0.990       .  S
O414        H445   0.990       .  S
O414        H459   0.990       .  S
O416        H442   0.964       .  S
O417       Zr427   2.388       .  S
O418       Zr427   2.379       .  S
O418        H443   0.966       .  S
C419       C1238   1.490       .  S
C420       C1258   1.472       .  S
C421       C1301   1.475       .  S
O422        H458   0.990       .  S
O423        C425   1.279       .  A
O424        C425   1.291       .  A
C425       C1431   1.484       .  S
O426       Zr427   2.441       .  S
O426        H455   0.990       .  S
Zr427       O430   2.438       .  S
Zr427       O431   2.438       .  S
Zr427       O432   2.406       .  S
O428        C433   1.290   1_545  A
O429        H446   0.990       .  S
O429        H461   0.990       .  S
O430        H447   0.990       .  S
O431        H451   0.990       .  S
O431        H460   0.990       .  S
O432        C433   1.278       .  A
C433       C1248   1.486       .  S
O434        H453   0.991       .  S
O434        H457   0.990       .  S
O435        H449   0.990       .  S
O435        H456   0.990       .  S
O436        C440   1.287       .  A
O437        C440   1.283       .  A
O438        H448   0.990       .  S
O439        H452   0.990       .  S
C440       C1268   1.483       .  S
Zr463       O464   2.440       .  S
Zr463       O465   2.458       .  S
Zr463       O466   2.462       .  S
Zr463       O469   2.464       .  S
Zr463       O471   2.386       .  S
Zr463       O472   2.389   1_565  S
Zr463       O473   2.416       .  S
Zr463       O474   2.398       .  S
O464        H520   0.990       .  S
O464        H528   0.991       .  S
O465        C485   1.288       .  A
O466        C487   1.288       .  A
O467       Zr477   2.416   1_565  S
O467        C486   1.282       .  A
O468       Zr476   2.426       .  S
O468        C487   1.283       .  A
O469        C486   1.289       .  A
O470       Zr478   2.402       .  S
O470        C485   1.277   1_545  A
O471       Zr476   2.398       .  S
O471       Zr478   2.386   1_565  S
O472       Zr477   2.392       .  S
O472       Zr478   2.378       .  S
O472        H507   0.966       .  S
O473       Zr476   2.403       .  S
O473       Zr493   2.375       .  S
O473        H510   0.963       .  S
O474       Zr477   2.377   1_565  S
O474       Zr493   2.378       .  S
Zr475       O500   2.440       .  S
Zr475       O494   2.469       .  S
Zr475       O502   2.464       .  S
Zr475       O490   2.470       .  S
Zr475       O481   2.410       .  S
Zr475       O482   2.417       .  S
Zr475       O483   2.384   1_545  S
Zr475       O484   2.388       .  S
Zr476       O495   2.436       .  S
Zr476       O488   2.436   1_565  S
Zr476       O489   2.424   1_565  S
Zr476       O482   2.399   1_565  S
Zr476       O483   2.397       .  S
Zr477       O479   2.436   1_545  S
Zr477       O501   2.436       .  S
Zr477       O503   2.406       .  S
Zr477       O481   2.386       .  S
Zr477       O484   2.394       .  S
Zr478       O504   2.436       .  S
Zr478       O505   2.437       .  S
Zr478       O480   2.437       .  S
Zr478       O481   2.390       .  S
Zr478       O482   2.373       .  S
O479        H516   0.990       .  S
O480        H511   0.990       .  S
O480        H525   0.990       .  S
O482        H508   0.963       .  S
O483       Zr493   2.387       .  S
O484       Zr493   2.379   1_545  S
O484        H509   0.966       .  S
C485       C1251   1.484       .  S
C486       C1218   1.485       .  S
C487       C1348   1.472       .  S
O488        H524   0.990       .  S
O489        C491   1.284       .  A
O490        C491   1.290       .  A
C491       C1381   1.487       .  S
O492       Zr493   2.440       .  S
O492        H521   0.990       .  S
Zr493       O496   2.438       .  S
Zr493       O497   2.439       .  S
Zr493       O498   2.393       .  S
O494        C499   1.289   1_545  A
O495        H512   0.990       .  S
O495        H527   0.989       .  S
O496        H513   0.990       .  S
O497        H517   0.990       .  S
O497        H526   0.990       .  S
O498        C499   1.277       .  A
C499       C1241   1.492       .  S
O500        H519   0.992       .  S
O500        H523   0.986       .  S
O501        H515   0.990       .  S
O501        H522   0.990       .  S
O502        C506   1.289       .  A
O503        C506   1.282       .  A
O504        H514   0.990       .  S
O505        H518   0.990       .  S
C506       C1228   1.486       .  S
Zr529       O530   2.439       .  S
Zr529       O531   2.463       .  S
Zr529       O532   2.478       .  S
Zr529       O535   2.472       .  S
Zr529       O537   2.390       .  S
Zr529       O538   2.391       .  S
Zr529       O539   2.416       .  S
Zr529       O540   2.400       .  S
O530        H586   0.990       .  S
O530        H594   0.990       .  S
O531        C551   1.288       .  A
O532        C553   1.291       .  A
O533       Zr543   2.408       .  S
O533        C552   1.279       .  A
O534       Zr542   2.404       .  S
O534        C553   1.281       .  A
O535        C552   1.292       .  A
O536       Zr544   2.404       .  S
O536        C551   1.279       .  A
O537       Zr542   2.401       .  S
O537       Zr544   2.385       .  S
O538       Zr543   2.394       .  S
O538       Zr544   2.380       .  S
O538        H573   0.965       .  S
O539       Zr542   2.402       .  S
O539       Zr559   2.384       .  S
O539        H576   0.964       .  S
O540       Zr543   2.383       .  S
O540       Zr559   2.383       .  S
Zr541       O566   2.440       .  S
Zr541       O560   2.463       .  S
Zr541       O568   2.441       .  S
Zr541       O556   2.464       .  S
Zr541       O547   2.406       .  S
Zr541       O548   2.416       .  S
Zr541       O549   2.375       .  S
Zr541       O550   2.385       .  S
Zr542       O561   2.436       .  S
Zr542       O554   2.437       .  S
Zr542       O555   2.424       .  S
Zr542       O548   2.394       .  S
Zr542       O549   2.395       .  S
Zr543       O545   2.435       .  S
Zr543       O567   2.439       .  S
Zr543       O569   2.414       .  S
Zr543       O547   2.378       .  S
Zr543       O550   2.396       .  S
Zr544       O570   2.437       .  S
Zr544       O571   2.436       .  S
Zr544       O546   2.438       .  S
Zr544       O547   2.384       .  S
Zr544       O548   2.377       .  S
O545        H582   0.990       .  S
O546        H577   0.990       .  S
O546        H591   0.990       .  S
O548        H574   0.963       .  S
O549       Zr559   2.388       .  S
O550       Zr559   2.381       .  S
O550        H575   0.965       .  S
C551       C1178   1.490       .  S
C552       C1221   1.494       .  S
C553       C1211   1.493       .  S
O554        H590   0.990       .  S
O555        C557   1.284       .  A
O556        C557   1.289       .  A
C557       C1198   1.484       .  S
O558       Zr559   2.439       .  S
O558        H587   0.990       .  S
Zr559       O562   2.437       .  S
Zr559       O563   2.439       .  S
Zr559       O564   2.401       .  S
O560        C565   1.288       .  A
O561        H578   0.990       .  S
O561        H593   0.990       .  S
O562        H579   0.990       .  S
O563        H583   0.990       .  S
O563        H592   0.990       .  S
O564        C565   1.277       .  A
C565       C1188   1.484       .  S
O566        H585   0.989       .  S
O566        H589   0.990       .  S
O567        H581   0.990       .  S
O567        H588   0.990       .  S
O568        C572   1.285       .  A
O569        C572   1.282       .  A
O570        H580   0.990       .  S
O571        H584   0.990       .  S
C572       C1511   1.468       .  S
Zr595       O596   2.441       .  S
Zr595       O597   2.466   1_556  S
Zr595       O598   2.467       .  S
Zr595       O601   2.439       .  S
Zr595       O603   2.379       .  S
Zr595       O604   2.388       .  S
Zr595       O605   2.416       .  S
Zr595       O606   2.406       .  S
O596        H652   0.990   1_556  S
O596        H660   0.989       .  S
O597        C617   1.288       .  A
O598        C619   1.289       .  A
O599       Zr609   2.428       .  S
O599        C618   1.283       .  A
O600       Zr608   2.419       .  S
O600        C619   1.283       .  A
O601        C618   1.284       .  A
O602       Zr610   2.398   1_554  S
O602        C617   1.276       .  A
O603       Zr608   2.399       .  S
O603       Zr610   2.386       .  S
O604       Zr609   2.394       .  S
O604       Zr610   2.378       .  S
O604        H639   0.966       .  S
O605       Zr608   2.396       .  S
O605       Zr625   2.382       .  S
O605        H642   0.964       .  S
O606       Zr609   2.378       .  S
O606       Zr625   2.382       .  S
Zr607       O632   2.440       .  S
Zr607       O626   2.476       .  S
Zr607       O634   2.451       .  S
Zr607       O622   2.467       .  S
Zr607       O613   2.409       .  S
Zr607       O614   2.420       .  S
Zr607       O615   2.378       .  S
Zr607       O616   2.390       .  S
Zr608       O627   2.436       .  S
Zr608       O620   2.435       .  S
Zr608       O621   2.415       .  S
Zr608       O614   2.401       .  S
Zr608       O615   2.394       .  S
Zr609       O611   2.434       .  S
Zr609       O633   2.441       .  S
Zr609       O635   2.410       .  S
Zr609       O613   2.388       .  S
Zr609       O616   2.399       .  S
Zr610       O636   2.437       .  S
Zr610       O637   2.436       .  S
Zr610       O612   2.438       .  S
Zr610       O613   2.386       .  S
Zr610       O614   2.381       .  S
O611        H648   0.990       .  S
O612        H643   0.990   1_556  S
O612        H657   0.990       .  S
O614        H640   0.963       .  S
O615       Zr625   2.383       .  S
O616       Zr625   2.377       .  S
O616        H641   0.966       .  S
C617       C1191   1.479       .  S
C618       C1261   1.465       .  S
C619       C1168   1.486       .  S
O620        H656   0.990       .  S
O621        C623   1.283       .  A
O622        C623   1.289       .  A
C623       C1161   1.485       .  S
O624       Zr625   2.436       .  S
O624        H653   0.990       .  S
Zr625       O628   2.438       .  S
Zr625       O629   2.442       .  S
Zr625       O630   2.393       .  S
O626        C631   1.290       .  A
O627        H644   0.990       .  S
O627        H659   0.990       .  S
O628        H645   0.990       .  S
O629        H649   0.990       .  S
O629        H658   0.989       .  S
O630        C631   1.276       .  A
C631       C1181   1.496       .  S
O632        H651   0.989       .  S
O632        H655   0.990       .  S
O633        H647   0.990       .  S
O633        H654   0.990       .  S
O634        C638   1.287       .  A
O635        C638   1.282       .  A
O636        H646   0.990   1_556  S
O637        H650   0.990       .  S
C638       C1448   1.480       .  S
Zr661       O662   2.441       .  S
Zr661       O663   2.467   1_554  S
Zr661       O664   2.475       .  S
Zr661       O667   2.469       .  S
Zr661       O669   2.383       .  S
Zr661       O670   2.393       .  S
Zr661       O671   2.415       .  S
Zr661       O672   2.410       .  S
O662        H718   0.990       .  S
O662        H726   0.991       .  S
O663        C683   1.289       .  A
O664        C685   1.291       .  A
O665       Zr675   2.408       .  S
O665        C684   1.281       .  A
O666       Zr674   2.409       .  S
O666        C685   1.279       .  A
O667        C684   1.290       .  A
O668       Zr676   2.399   1_556  S
O668        C683   1.276       .  A
O669       Zr674   2.394       .  S
O669       Zr676   2.387       .  S
O670       Zr675   2.399       .  S
O670       Zr676   2.378       .  S
O670        H705   0.966       .  S
O671       Zr674   2.395       .  S
O671       Zr691   2.381       .  S
O671        H708   0.963       .  S
O672       Zr675   2.387       .  S
O672       Zr691   2.392       .  S
Zr673       O698   2.442       .  S
Zr673       O692   2.469       .  S
Zr673       O700   2.453       .  S
Zr673       O688   2.470       .  S
Zr673       O679   2.410       .  S
Zr673       O680   2.417       .  S
Zr673       O681   2.381       .  S
Zr673       O682   2.389       .  S
Zr674       O693   2.436       .  S
Zr674       O686   2.436       .  S
Zr674       O687   2.400       .  S
Zr674       O680   2.396       .  S
Zr674       O681   2.394       .  S
Zr675       O677   2.436       .  S
Zr675       O699   2.440       .  S
Zr675       O701   2.409       .  S
Zr675       O679   2.387       .  S
Zr675       O682   2.394       .  S
Zr676       O702   2.435       .  S
Zr676       O703   2.436       .  S
Zr676       O678   2.438       .  S
Zr676       O679   2.386       .  S
Zr676       O680   2.383       .  S
O677        H714   0.990       .  S
O678        H709   0.991       .  S
O678        H723   0.990       .  S
O680        H706   0.964       .  S
O681       Zr691   2.386       .  S
O682       Zr691   2.378       .  S
O682        H707   0.966       .  S
C683       C1118   1.487       .  S
C684       C1271   1.492       .  S
C685       C1148   1.490       .  S
O686        H722   0.990       .  S
O687        C689   1.277       .  A
O688        C689   1.291       .  A
C689       C1141   1.491       .  S
O690       Zr691   2.438       .  S
O690        H719   0.991       .  S
Zr691       O694   2.436       .  S
Zr691       O695   2.439       .  S
Zr691       O696   2.408       .  S
O692        C697   1.289       .  A
O693        H710   0.990       .  S
O693        H725   0.990       .  S
O694        H711   0.990       .  S
O695        H715   0.990       .  S
O695        H724   0.990       .  S
O696        C697   1.278       .  A
C697       C1128   1.486       .  S
O698        H717   0.990       .  S
O698        H721   0.990       .  S
O699        H713   0.990       .  S
O699        H720   0.989       .  S
O700        C704   1.287       .  A
O701        C704   1.280       .  A
O702        H712   0.989       .  S
O703        H716   0.990       .  S
C704       C1498   1.484       .  S
Zr727       O728   2.438       .  S
Zr727       O729   2.468       .  S
Zr727       O730   2.478       .  S
Zr727       O733   2.459       .  S
Zr727       O735   2.381       .  S
Zr727       O736   2.390       .  S
Zr727       O737   2.419       .  S
Zr727       O738   2.405       .  S
O728        H784   0.990       .  S
O728        H792   0.990       .  S
O729        C749   1.289       .  A
O730        C751   1.291       .  A
O731       Zr741   2.417       .  S
O731        C750   1.282       .  A
O732       Zr740   2.397       .  S
O732        C751   1.279       .  A
O733        C750   1.289       .  A
O734       Zr742   2.403       .  S
O734        C749   1.278       .  A
O735       Zr740   2.400       .  S
O735       Zr742   2.385       .  S
O736       Zr741   2.395       .  S
O736       Zr742   2.371       .  S
O736        H771   0.966       .  S
O737       Zr740   2.400       .  S
O737       Zr757   2.384       .  S
O737        H774   0.964       .  S
O738       Zr741   2.385       .  S
O738       Zr757   2.379       .  S
Zr739       O764   2.442       .  S
Zr739       O758   2.468       .  S
Zr739       O766   2.449       .  S
Zr739       O754   2.460       .  S
Zr739       O745   2.406       .  S
Zr739       O746   2.416       .  S
Zr739       O747   2.379       .  S
Zr739       O748   2.386       .  S
Zr740       O759   2.436       .  S
Zr740       O752   2.437       .  S
Zr740       O753   2.413       .  S
Zr740       O746   2.391       .  S
Zr740       O747   2.391       .  S
Zr741       O743   2.436       .  S
Zr741       O765   2.438       .  S
Zr741       O767   2.411       .  S
Zr741       O745   2.383       .  S
Zr741       O748   2.397       .  S
Zr742       O768   2.436       .  S
Zr742       O769   2.436       .  S
Zr742       O744   2.437       .  S
Zr742       O745   2.387       .  S
Zr742       O746   2.376       .  S
O743        H780   0.990       .  S
O744        H775   0.990       .  S
O744        H789   0.990       .  S
O746        H772   0.963       .  S
O747       Zr757   2.391       .  S
O748       Zr757   2.380       .  S
O748        H773   0.965       .  S
C749       C1131   1.484       .  S
C750       C1231   1.488       .  S
C751       C1108   1.495       .  S
O752        H788   0.990       .  S
O753        C755   1.282       .  A
O754        C755   1.288       .  A
C755       C1098   1.480       .  S
O756       Zr757   2.439       .  S
O756        H785   0.991       .  S
Zr757       O760   2.436       .  S
Zr757       O761   2.441       .  S
Zr757       O762   2.396       .  S
O758        C763   1.289       .  A
O759        H776   0.990       .  S
O759        H791   0.990       .  S
O760        H777   0.990       .  S
O761        H781   0.990       .  S
O761        H790   0.990       .  S
O762        C763   1.276       .  A
C763       C1121   1.486       .  S
O764        H783   0.991       .  S
O764        H787   0.990       .  S
O765        H779   0.990       .  S
O765        H786   0.989       .  S
O766        C770   1.285       .  A
O767        C770   1.280       .  A
O768        H778   0.990       .  S
O769        H782   0.990       .  S
C770       C1441   1.465       .  S
Zr793       O794   2.441       .  S
Zr793       O795   2.475       .  S
Zr793       O796   2.476       .  S
Zr793       O799   2.452       .  S
Zr793       O801   2.376       .  S
Zr793       O802   2.391       .  S
Zr793       O803   2.419   1_554  S
Zr793       O804   2.413       .  S
O794        H850   0.991       .  S
O794        H858   0.989       .  S
O795        C815   1.291       .  A
O796        C817   1.290       .  A
O797       Zr807   2.427       .  S
O797        C816   1.283       .  A
O798       Zr806   2.415       .  S
O798        C817   1.282       .  A
O799        C816   1.287       .  A
O800       Zr808   2.402       .  S
O800        C815   1.276       .  A
O801       Zr806   2.396       .  S
O801       Zr808   2.390       .  S
O802       Zr807   2.395       .  S
O802       Zr808   2.380       .  S
O802        H837   0.965       .  S
O803       Zr806   2.390   1_556  S
O803       Zr823   2.390       .  S
O803        H840   0.964       .  S
O804       Zr807   2.380       .  S
O804       Zr823   2.390   1_554  S
Zr805       O830   2.442       .  S
Zr805       O824   2.469       .  S
Zr805       O832   2.463       .  S
Zr805       O820   2.473       .  S
Zr805       O811   2.410   1_556  S
Zr805       O812   2.409   1_556  S
Zr805       O813   2.381       .  S
Zr805       O814   2.388       .  S
Zr806       O825   2.434   1_554  S
Zr806       O818   2.435       .  S
Zr806       O819   2.401   1_554  S
Zr806       O812   2.398       .  S
Zr806       O813   2.394   1_554  S
Zr807       O809   2.435   1_554  S
Zr807       O831   2.437       .  S
Zr807       O833   2.412   1_554  S
Zr807       O811   2.394       .  S
Zr807       O814   2.396   1_554  S
Zr808       O834   2.437       .  S
Zr808       O835   2.438       .  S
Zr808       O810   2.436       .  S
Zr808       O811   2.390       .  S
Zr808       O812   2.376       .  S
O809        H846   0.990       .  S
O810        H841   0.990       .  S
O810        H855   0.990       .  S
O812        H838   0.964       .  S
O813       Zr823   2.384       .  S
O814       Zr823   2.374       .  S
O814        H839   0.966       .  S
C815       C1088   1.493       .  S
C816       C1418   1.472       .  S
C817       C1151   1.492       .  S
O818        H854   0.990       .  S
O819        C821   1.278       .  A
O820        C821   1.293       .  A
C821       C1171   1.488       .  S
O822       Zr823   2.440       .  S
O822        H851   0.990       .  S
Zr823       O826   2.439       .  S
Zr823       O827   2.437       .  S
Zr823       O828   2.409       .  S
O824        C829   1.290       .  A
O825        H842   0.990       .  S
O825        H857   0.990       .  S
O826        H843   0.991       .  S
O827        H847   0.990       .  S
O827        H856   0.989       .  S
O828        C829   1.278       .  A
C829       C1078   1.486       .  S
O830        H849   0.990       .  S
O830        H853   0.991       .  S
O831        H845   0.990       .  S
O831        H852   0.990       .  S
O832        C836   1.290       .  A
O833        C836   1.281       .  A
O834        H844   0.991       .  S
O835        H848   0.990       .  S
C836       C1288   1.483       .  S
Zr859       O860   2.442       .  S
Zr859       O861   2.465       .  S
Zr859       O862   2.448       .  S
Zr859       O865   2.460       .  S
Zr859       O867   2.383       .  S
Zr859       O868   2.386       .  S
Zr859       O869   2.420       .  S
Zr859       O870   2.402       .  S
O860        H916   0.990       .  S
O860        H924   0.991       .  S
O861        C881   1.289       .  A
O862        C883   1.286       .  A
O863       Zr873   2.398       .  S
O863        C882   1.279       .  A
O864       Zr872   2.427       .  S
O864        C883   1.283       .  A
O865        C882   1.288       .  A
O866       Zr874   2.397       .  S
O866        C881   1.276       .  A
O867       Zr872   2.393       .  S
O867       Zr874   2.383       .  S
O868       Zr873   2.393       .  S
O868       Zr874   2.382       .  S
O868        H903   0.966       .  S
O869       Zr872   2.395       .  S
O869       Zr889   2.375       .  S
O869        H906   0.963       .  S
O870       Zr873   2.381       .  S
O870       Zr889   2.392       .  S
Zr871       O896   2.443       .  S
Zr871       O890   2.471       .  S
Zr871       O898   2.468       .  S
Zr871       O886   2.458       .  S
Zr871       O877   2.402       .  S
Zr871       O878   2.423       .  S
Zr871       O879   2.387       .  S
Zr871       O880   2.385       .  S
Zr872       O891   2.435       .  S
Zr872       O884   2.437       .  S
Zr872       O885   2.414       .  S
Zr872       O878   2.404       .  S
Zr872       O879   2.400       .  S
Zr873       O875   2.435       .  S
Zr873       O897   2.439       .  S
Zr873       O899   2.403       .  S
Zr873       O877   2.379       .  S
Zr873       O880   2.386       .  S
Zr874       O900   2.437       .  S
Zr874       O901   2.436       .  S
Zr874       O876   2.437       .  S
Zr874       O877   2.384       .  S
Zr874       O878   2.384       .  S
O875        H912   0.990       .  S
O876        H907   0.990       .  S
O876        H921   0.990       .  S
O878        H904   0.964       .  S
O879       Zr889   2.381       .  S
O880       Zr889   2.381       .  S
O880        H905   0.965       .  S
C881       C1081   1.480       .  S
C882       C1371   1.482       .  S
C883       C1111   1.475       .  S
O884        H920   0.990       .  S
O885        C887   1.282       .  A
O886        C887   1.287       .  A
C887       C1208   1.475       .  S
O888       Zr889   2.440       .  S
O888        H917   0.990       .  S
Zr889       O892   2.439       .  S
Zr889       O893   2.436       .  S
Zr889       O894   2.402       .  S
O890        C895   1.291       .  A
O891        H908   0.990       .  S
O891        H923   0.990       .  S
O892        H909   0.990       .  S
O893        H913   0.990       .  S
O893        H922   0.989       .  S
O894        C895   1.277       .  A
C895       C1091   1.490       .  S
O896        H915   0.991       .  S
O896        H919   0.991       .  S
O897        H911   0.990       .  S
O897        H918   0.990       .  S
O898        C902   1.291       .  A
O899        C902   1.278       .  A
O900        H910   0.990       .  S
O901        H914   0.990       .  S
C902       C1338   1.494       .  S
Zr925       O926   2.442       .  S
Zr925       O927   2.462       .  S
Zr925       O928   2.459       .  S
Zr925       O931   2.447   1_655  S
Zr925       O933   2.381       .  S
Zr925       O934   2.391   1_655  S
Zr925       O935   2.412       .  S
Zr925       O936   2.405   1_655  S
O926        H982   0.990       .  S
O926        H990   0.991       .  S
O927        C947   1.288       .  A
O928        C949   1.288       .  A
O929       Zr939   2.414       .  S
O929        C948   1.281       .  A
O930       Zr938   2.415       .  S
O930        C949   1.279       .  A
O931        C948   1.286       .  A
O932       Zr940   2.402   1_655  S
O932        C947   1.279       .  A
O933       Zr938   2.395       .  S
O933       Zr940   2.385   1_655  S
O934       Zr939   2.399       .  S
O934       Zr940   2.377       .  S
O934        H969   0.966       .  S
O935       Zr938   2.398       .  S
O935       Zr955   2.383       .  S
O935        H972   0.964       .  S
O936       Zr939   2.387       .  S
O936       Zr955   2.385   1_455  S
Zr937       O962   2.440   1_455  S
Zr937       O956   2.463       .  S
Zr937       O964   2.472       .  S
Zr937       O952   2.456   1_455  S
Zr937       O943   2.402       .  S
Zr937       O944   2.420   1_455  S
Zr937       O945   2.384   1_455  S
Zr937       O946   2.390       .  S
Zr938       O957   2.437       .  S
Zr938       O950   2.435       .  S
Zr938       O951   2.413       .  S
Zr938       O944   2.396       .  S
Zr938       O945   2.394       .  S
Zr939       O941   2.436       .  S
Zr939       O963   2.438       .  S
Zr939       O965   2.431       .  S
Zr939       O943   2.381       .  S
Zr939       O946   2.394       .  S
Zr940       O966   2.436       .  S
Zr940       O967   2.436       .  S
Zr940       O942   2.437   1_455  S
Zr940       O943   2.383       .  S
Zr940       O944   2.382   1_455  S
O941        H978   0.990       .  S
O942        H973   0.990       .  S
O942        H987   0.990       .  S
O944        H970   0.964       .  S
O945       Zr955   2.381       .  S
O946       Zr955   2.386   1_455  S
O946        H971   0.966       .  S
C947       C1061   1.491       .  S
C948       C1331   1.464       .  S
C949       C1201   1.488       .  S
O950        H986   0.990       .  S
O951        C953   1.282       .  A
O952        C953   1.287       .  A
C953       C1138   1.474       .  S
O954       Zr955   2.439       .  S
O954        H983   0.991       .  S
Zr955       O958   2.438       .  S
Zr955       O959   2.440   1_655  S
Zr955       O960   2.397   1_655  S
O956        C961   1.287       .  A
O957        H974   0.990       .  S
O957        H989   0.990       .  S
O958        H975   0.990       .  S
O959        H979   0.990       .  S
O959        H988   0.990       .  S
O960        C961   1.277       .  A
C961       C1068   1.485       .  S
O962        H981   0.992   1_655  S
O962        H985   0.987   1_655  S
O963        H977   0.990       .  S
O963        H984   0.990       .  S
O964        C968   1.290       .  A
O965        C968   1.286       .  A
O966        H976   0.990       .  S
O967        H980   0.990       .  S
C968       C1411   1.500       .  S
Zr991       O992   2.442       .  S
Zr991       O993   2.463       .  S
Zr991       O994   2.466   1_455  S
Zr991       O997   2.466       .  S
Zr991       O999   2.381   1_455  S
Zr991      O1000   2.390       .  S
Zr991      O1001   2.417   1_455  S
Zr991      O1002   2.405       .  S
O992       H1048   0.991   1_455  S
O992       H1056   0.990   1_455  S
O993       C1013   1.287       .  A
O994       C1015   1.289       .  A
O995      Zr1005   2.413       .  S
O995       C1014   1.283       .  A
O996      Zr1004   2.400       .  S
O996       C1015   1.277       .  A
O997       C1014   1.290       .  A
O998      Zr1006   2.396   1_455  S
O998       C1013   1.277       .  A
O999      Zr1004   2.394       .  S
O999      Zr1006   2.381       .  S
O1000     Zr1005   2.394       .  S
O1000     Zr1006   2.381   1_455  S
O1000      H1035   0.966       .  S
O1001     Zr1004   2.398       .  S
O1001     Zr1021   2.387       .  S
O1001      H1038   0.964       .  S
O1002     Zr1005   2.385       .  S
O1002     Zr1021   2.387   1_455  S
Zr1003     O1028   2.439   1_655  S
Zr1003     O1022   2.459       .  S
Zr1003     O1030   2.450   1_655  S
Zr1003     O1018   2.458       .  S
Zr1003     O1009   2.406   1_655  S
Zr1003     O1010   2.413       .  S
Zr1003     O1011   2.379       .  S
Zr1003     O1012   2.385   1_655  S
Zr1004     O1023   2.436       .  S
Zr1004     O1016   2.435       .  S
Zr1004     O1017   2.404       .  S
Zr1004     O1010   2.395       .  S
Zr1004     O1011   2.392       .  S
Zr1005     O1007   2.436       .  S
Zr1005     O1029   2.440       .  S
Zr1005     O1031   2.412       .  S
Zr1005     O1009   2.380       .  S
Zr1005     O1012   2.395       .  S
Zr1006     O1032   2.434   1_655  S
Zr1006     O1033   2.434       .  S
Zr1006     O1008   2.438       .  S
Zr1006     O1009   2.387   1_655  S
Zr1006     O1010   2.381       .  S
O1007      H1044   0.990       .  S
O1008      H1039   0.990       .  S
O1008      H1053   0.991       .  S
O1010      H1036   0.964       .  S
O1011     Zr1021   2.382       .  S
O1012     Zr1021   2.381   1_455  S
O1012      H1037   0.966       .  S
C1013      C1071   1.485       .  S
C1014      C1281   1.494       .  S
C1015      C1158   1.483       .  S
O1016      H1052   0.990       .  S
O1017      C1019   1.279       .  A
O1018      C1019   1.288       .  A
C1019      C1101   1.480       .  S
O1020     Zr1021   2.438   1_455  S
O1020      H1049   0.991       .  S
Zr1021     O1024   2.438       .  S
Zr1021     O1025   2.439   1_655  S
Zr1021     O1026   2.407       .  S
O1022      C1027   1.287       .  A
O1023      H1040   0.990       .  S
O1023      H1055   0.990       .  S
O1024      H1041   0.990       .  S
O1025      H1045   0.990       .  S
O1025      H1054   0.990       .  S
O1026      C1027   1.278       .  A
C1027      C1058   1.493       .  S
O1028      H1047   0.990   1_455  S
O1028      H1051   0.990   1_455  S
O1029      H1043   0.990       .  S
O1029      H1050   0.990       .  S
O1030      C1034   1.286       .  A
O1031      C1034   1.282       .  A
O1032      H1042   0.989       .  S
O1033      H1046   0.990   1_655  S
C1034      C1361   1.485       .  S
C1057      C1058   1.412       .  A
C1057      C1062   1.405       .  A
C1057      H1064   1.083       .  S
C1058      C1059   1.413   1_655  A
C1059      C1060   1.398       .  A
C1059     Br1066   1.922       .  S
C1060      C1061   1.408   1_455  A
C1060      H1065   1.083       .  S
C1061      C1062   1.412       .  A
C1062     Br1063   1.921       .  S
C1067      C1068   1.409       .  A
C1067      C1072   1.400   1_554  A
C1067      H1074   1.084       .  S
C1068      C1069   1.410   1_455  A
C1069      C1070   1.400   1_554  A
C1069     Br1076   1.921       .  S
C1070      C1071   1.409   1_655  A
C1070      H1075   1.084       .  S
C1071      C1072   1.410       .  A
C1072     Br1073   1.921       .  S
C1077      C1078   1.404       .  A
C1077      C1082   1.403       .  A
C1077      H1084   1.083       .  S
C1078      C1079   1.416       .  A
C1079      C1080   1.399       .  A
C1079     Br1086   1.918       .  S
C1080      C1081   1.400       .  A
C1080      H1085   1.084       .  S
C1081      C1082   1.413       .  A
C1082     Br1083   1.921       .  S
C1087      C1088   1.403       .  A
C1087      C1092   1.402       .  A
C1087      H1094   1.084       .  S
C1088      C1089   1.419       .  A
C1089      C1090   1.401       .  A
C1089     Br1096   1.918       .  S
C1090      C1091   1.401       .  A
C1090      H1095   1.084       .  S
C1091      C1092   1.419       .  A
C1092     Br1093   1.920       .  S
C1097      C1098   1.403       .  A
C1097      C1102   1.393       .  A
C1097      H1104   1.084       .  S
C1098      C1099   1.415       .  A
C1099      C1100   1.401       .  A
C1099     Br1106   1.921       .  S
C1100      C1101   1.405       .  A
C1100      H1105   1.083       .  S
C1101      C1102   1.413       .  A
C1102     Br1103   1.922       .  S
C1107      C1108   1.415       .  A
C1107      C1112   1.393       .  A
C1107      H1114   1.083       .  S
C1108      C1109   1.417       .  A
C1109      C1110   1.402       .  A
C1109     Br1116   1.917       .  S
C1110      C1111   1.405       .  A
C1110      H1115   1.084       .  S
C1111      C1112   1.402       .  A
C1112     Br1113   1.921       .  S
C1117      C1118   1.402       .  A
C1117      C1122   1.401       .  A
C1117      H1124   1.084       .  S
C1118      C1119   1.417       .  A
C1119      C1120   1.401       .  A
C1119     Br1126   1.921       .  S
C1120      C1121   1.402       .  A
C1120      H1125   1.084       .  S
C1121      C1122   1.417       .  A
C1122     Br1123   1.921       .  S
C1127      C1128   1.403       .  A
C1127      C1132   1.403       .  A
C1127      H1134   1.084       .  S
C1128      C1129   1.415       .  A
C1129      C1130   1.403       .  A
C1129     Br1136   1.919       .  S
C1130      C1131   1.402       .  A
C1130      H1135   1.084       .  S
C1131      C1132   1.413       .  A
C1132     Br1133   1.920       .  S
C1137      C1138   1.396       .  A
C1137      C1142   1.392       .  A
C1137      H1144   1.084       .  S
C1138      C1139   1.411       .  A
C1139      C1140   1.404       .  A
C1139     Br1146   1.920       .  S
C1140      C1141   1.409       .  A
C1140      H1145   1.083       .  S
C1141      C1142   1.423       .  A
C1142     Br1143   1.926       .  S
C1147      C1148   1.406       .  A
C1147      C1152   1.404       .  A
C1147      H1154   1.083       .  S
C1148      C1149   1.416       .  A
C1149      C1150   1.397       .  A
C1149     Br1156   1.924       .  S
C1150      C1151   1.406       .  A
C1150      H1155   1.084       .  S
C1151      C1152   1.416       .  A
C1152     Br1153   1.919       .  S
C1157      C1158   1.406       .  A
C1157      C1162   1.401       .  A
C1157      H1164   1.083       .  S
C1158      C1159   1.414       .  A
C1159      C1160   1.394       .  A
C1159     Br1166   1.924       .  S
C1160      C1161   1.405       .  A
C1160      H1165   1.084       .  S
C1161      C1162   1.415       .  A
C1162     Br1163   1.918       .  S
C1167      C1168   1.403       .  A
C1167      C1172   1.395       .  A
C1167      H1174   1.084       .  S
C1168      C1169   1.416       .  A
C1169      C1170   1.402       .  A
C1169     Br1176   1.918       .  S
C1170      C1171   1.405       .  A
C1170      H1175   1.083       .  S
C1171      C1172   1.417       .  A
C1172     Br1173   1.924       .  S
C1177      C1178   1.410       .  A
C1177      C1182   1.403       .  A
C1177      H1184   1.084       .  S
C1178      C1179   1.410       .  A
C1179      C1180   1.401       .  A
C1179     Br1186   1.921       .  S
C1180      C1181   1.413       .  A
C1180      H1185   1.083       .  S
C1181      C1182   1.412       .  A
C1182     Br1183   1.920       .  S
C1187      C1188   1.410       .  A
C1187      C1192   1.404       .  A
C1187      H1194   1.084       .  S
C1188      C1189   1.410       .  A
C1189      C1190   1.399       .  A
C1189     Br1196   1.920       .  S
C1190      C1191   1.405       .  A
C1190      H1195   1.084       .  S
C1191      C1192   1.408       .  A
C1192     Br1193   1.920       .  S
C1197      C1198   1.403       .  A
C1197      C1202   1.398       .  A
C1197      H1204   1.084       .  S
C1198      C1199   1.414       .  A
C1199      C1200   1.400       .  A
C1199     Br1206   1.919       .  S
C1200      C1201   1.406       .  A
C1200      H1205   1.083       .  S
C1201      C1202   1.417       .  A
C1202     Br1203   1.923       .  S
C1207      C1208   1.403       .  A
C1207      C1212   1.403       .  A
C1207      H1214   1.084       .  S
C1208      C1209   1.405       .  A
C1209      C1210   1.394       .  A
C1209     Br1216   1.921       .  S
C1210      C1211   1.411       .  A
C1210      H1215   1.083       .  S
C1211      C1212   1.418       .  A
C1212     Br1213   1.916       .  S
C1217      C1218   1.402       .  A
C1217      C1222   1.397       .  A
C1217      H1224   1.084       .  S
C1218      C1219   1.412       .  A
C1219      C1220   1.404       .  A
C1219     Br1226   1.918       .  S
C1220      C1221   1.409       .  A
C1220      H1225   1.083       .  S
C1221      C1222   1.420       .  A
C1222     Br1223   1.925       .  S
C1227      C1228   1.405       .  A
C1227      C1232   1.394       .  A
C1227      H1234   1.084       .  S
C1228      C1229   1.413       .  A
C1229      C1230   1.404       .  A
C1229     Br1236   1.918       .  S
C1230      C1231   1.408       .  A
C1230      H1235   1.083       .  S
C1231      C1232   1.415       .  A
C1232     Br1233   1.924       .  S
C1237      C1238   1.410   1_545  A
C1237      C1242   1.401       .  A
C1237      H1244   1.084       .  S
C1238      C1239   1.411       .  A
C1239      C1240   1.400       .  A
C1239     Br1246   1.921       .  S
C1240      C1241   1.411       .  A
C1240      H1245   1.083       .  S
C1241      C1242   1.412   1_565  A
C1242     Br1243   1.919       .  S
C1247      C1248   1.402   1_545  A
C1247      C1252   1.401       .  A
C1247      H1254   1.084       .  S
C1248      C1249   1.417       .  A
C1249      C1250   1.399       .  A
C1249     Br1256   1.917       .  S
C1250      C1251   1.401       .  A
C1250      H1255   1.084       .  S
C1251      C1252   1.416   1_565  A
C1252     Br1253   1.918       .  S
C1257      C1258   1.403       .  A
C1257      C1262   1.400       .  A
C1257      H1264   1.084       .  S
C1258      C1259   1.412       .  A
C1259      C1260   1.395       .  A
C1259     Br1266   1.920   1_556  S
C1260      C1261   1.398       .  A
C1260      H1265   1.084       .  S
C1261      C1262   1.407       .  A
C1262     Br1263   1.917       .  S
C1267      C1268   1.406       .  A
C1267      C1272   1.404       .  A
C1267      H1274   1.083       .  S
C1268      C1269   1.410       .  A
C1269      C1270   1.396       .  A
C1269     Br1276   1.921       .  S
C1270      C1271   1.409       .  A
C1270      H1275   1.083       .  S
C1271      C1272   1.415       .  A
C1272     Br1273   1.917       .  S
C1277      C1278   1.403       .  A
C1277      C1282   1.403       .  A
C1277      H1284   1.084       .  S
C1278      C1279   1.408       .  A
C1279      C1280   1.393       .  A
C1279     Br1286   1.922       .  S
C1280      C1281   1.410       .  A
C1280      H1285   1.083       .  S
C1281      C1282   1.418       .  A
C1282     Br1283   1.917       .  S
C1287      C1288   1.403       .  A
C1287      C1292   1.403       .  A
C1287      H1294   1.084       .  S
C1288      C1289   1.411       .  A
C1289      C1290   1.397       .  A
C1289     Br1296   1.920       .  S
C1290      C1291   1.409       .  A
C1290      H1295   1.083       .  S
C1291      C1292   1.418       .  A
C1292     Br1293   1.917       .  S
C1297      C1298   1.404       .  A
C1297      C1302   1.399       .  A
C1297      H1304   1.084       .  S
C1298      C1299   1.397       .  A
C1299      C1300   1.392       .  A
C1299     Br1306   1.919   1_556  S
C1300      C1301   1.410       .  A
C1300      H1305   1.083       .  S
C1301      C1302   1.409       .  A
C1302     Br1303   1.919       .  S
C1307      C1308   1.400       .  A
C1307      C1312   1.398       .  A
C1307      H1314   1.084       .  S
C1308      C1309   1.418       .  A
C1309      C1310   1.402       .  A
C1309     Br1316   1.918       .  S
C1310      C1311   1.402       .  A
C1310      H1315   1.084       .  S
C1311      C1312   1.418       .  A
C1312     Br1313   1.918       .  S
C1317      C1318   1.404       .  A
C1317      C1322   1.401       .  A
C1317      H1324   1.083       .  S
C1318      C1319   1.423       .  A
C1319      C1320   1.398       .  A
C1319     Br1326   1.926       .  S
C1320      C1321   1.402       .  A
C1320      H1325   1.083       .  S
C1321      C1322   1.421       .  A
C1322     Br1323   1.923       .  S
C1327      C1328   1.412       .  A
C1327      C1332   1.396       .  A
C1327      H1334   1.083       .  S
C1328      C1329   1.418       .  A
C1329      C1330   1.402       .  A
C1329     Br1336   1.917       .  S
C1330      C1331   1.400       .  A
C1330      H1335   1.084       .  S
C1331      C1332   1.400       .  A
C1332     Br1333   1.920       .  S
C1337      C1338   1.408       .  A
C1337      C1342   1.405       .  A
C1337      H1344   1.083       .  S
C1338      C1339   1.422       .  A
C1339      C1340   1.396       .  A
C1339     Br1346   1.926       .  S
C1340      C1341   1.400       .  A
C1340      H1345   1.084       .  S
C1341      C1342   1.413       .  A
C1342     Br1343   1.919       .  S
C1347      C1348   1.399       .  A
C1347      C1352   1.400       .  A
C1347      H1354   1.084       .  S
C1348      C1349   1.413       .  A
C1349      C1350   1.398       .  A
C1349     Br1356   1.916       .  S
C1350      C1351   1.397       .  A
C1350      H1355   1.084       .  S
C1351      C1352   1.414       .  A
C1352     Br1353   1.918       .  S
C1357      C1358   1.406       .  A
C1357      C1362   1.402       .  A
C1357      H1364   1.084       .  S
C1358      C1359   1.413       .  A
C1359      C1360   1.393       .  A
C1359     Br1366   1.924       .  S
C1360      C1361   1.405       .  A
C1360      H1365   1.084       .  S
C1361      C1362   1.415       .  A
C1362     Br1363   1.917       .  S
C1367      C1368   1.408       .  A
C1367      C1372   1.405       .  A
C1367      H1374   1.083       .  S
C1368      C1369   1.412       .  A
C1369      C1370   1.389       .  A
C1369     Br1376   1.922       .  S
C1370      C1371   1.404       .  A
C1370      H1375   1.084       .  S
C1371      C1372   1.412       .  A
C1372     Br1373   1.919       .  S
C1377      C1378   1.406       .  A
C1377      C1382   1.402       .  A
C1377      H1384   1.083       .  S
C1378      C1379   1.416       .  A
C1379      C1380   1.398       .  A
C1379     Br1386   1.923       .  S
C1380      C1381   1.405       .  A
C1380      H1385   1.084       .  S
C1381      C1382   1.415       .  A
C1382     Br1383   1.919       .  S
C1387      C1388   1.412       .  A
C1387      C1392   1.401       .  A
C1387      H1394   1.083       .  S
C1388      C1389   1.412       .  A
C1389      C1390   1.402       .  A
C1389     Br1396   1.921       .  S
C1390      C1391   1.410       .  A
C1390      H1395   1.084       .  S
C1391      C1392   1.409       .  A
C1392     Br1393   1.921       .  S
C1397      C1398   1.411       .  A
C1397      C1402   1.398       .  A
C1397      H1404   1.083       .  S
C1398      C1399   1.412       .  A
C1399      C1400   1.398       .  A
C1399     Br1406   1.922       .  S
C1400      C1401   1.411       .  A
C1400      H1405   1.083       .  S
C1401      C1402   1.412       .  A
C1402     Br1403   1.923       .  S
C1407      C1408   1.405       .  A
C1407      C1412   1.404       .  A
C1407      H1414   1.084       .  S
C1408      C1409   1.411       .  A
C1409      C1410   1.398       .  A
C1409     Br1416   1.922       .  S
C1410      C1411   1.410       .  A
C1410      H1415   1.083       .  S
C1411      C1412   1.419       .  A
C1412     Br1413   1.918       .  S
C1417      C1418   1.400       .  A
C1417      C1422   1.400       .  A
C1417      H1424   1.084       .  S
C1418      C1419   1.410       .  A
C1419      C1420   1.399       .  A
C1419     Br1426   1.915   1_554  S
C1420      C1421   1.401       .  A
C1420      H1425   1.084       .  S
C1421      C1422   1.412       .  A
C1422     Br1423   1.919       .  S
C1427      C1428   1.409       .  A
C1427      C1432   1.397       .  A
C1427      H1434   1.083       .  S
C1428      C1429   1.419       .  A
C1429      C1430   1.404       .  A
C1429     Br1436   1.916       .  S
C1430      C1431   1.404       .  A
C1430      H1435   1.084       .  S
C1431      C1432   1.411       .  A
C1432     Br1433   1.923       .  S
C1437      C1438   1.407       .  A
C1437      C1442   1.399       .  A
C1437      H1444   1.084       .  S
C1438      C1439   1.410       .  A
C1439      C1440   1.399       .  A
C1439     Br1446   1.919       .  S
C1440      C1441   1.402       .  A
C1440      H1445   1.084       .  S
C1441      C1442   1.403       .  A
C1442     Br1443   1.920       .  S
C1447      C1448   1.402       .  A
C1447      C1452   1.392       .  A
C1447      H1454   1.084       .  S
C1448      C1449   1.412       .  A
C1449      C1450   1.403       .  A
C1449     Br1456   1.920       .  S
C1450      C1451   1.409       .  A
C1450      H1455   1.083       .  S
C1451      C1452   1.416       .  A
C1452     Br1453   1.924       .  S
C1457      C1458   1.407       .  A
C1457      C1462   1.401       .  A
C1457      H1464   1.083       .  S
C1458      C1459   1.417       .  A
C1459      C1460   1.393       .  A
C1459     Br1466   1.924       .  S
C1460      C1461   1.402       .  A
C1460      H1465   1.084       .  S
C1461      C1462   1.411       .  A
C1462     Br1463   1.919       .  S
C1467      C1468   1.405       .  A
C1467      C1472   1.402       .  A
C1467      H1474   1.084       .  S
C1468      C1469   1.410       .  A
C1469      C1470   1.393       .  A
C1469     Br1476   1.923       .  S
C1470      C1471   1.410       .  A
C1470      H1475   1.083       .  S
C1471      C1472   1.417       .  A
C1472     Br1473   1.916       .  S
C1477      C1478   1.411       .  A
C1477      C1482   1.404       .  A
C1477      H1484   1.084       .  S
C1478      C1479   1.411   1_665  A
C1479      C1480   1.401       .  A
C1479     Br1486   1.921       .  S
C1480      C1481   1.408   1_545  A
C1480      H1485   1.084       .  S
C1481      C1482   1.409   1_455  A
C1482     Br1483   1.920       .  S
C1487      C1488   1.403   1_455  A
C1487      C1492   1.403   1_554  A
C1487      H1494   1.084       .  S
C1488      C1489   1.414   1_545  A
C1489      C1490   1.403   1_554  A
C1489     Br1496   1.919       .  S
C1490      C1491   1.403   1_665  A
C1490      H1495   1.084       .  S
C1491      C1492   1.414       .  A
C1492     Br1493   1.919       .  S
C1497      C1498   1.406       .  A
C1497      C1502   1.402       .  A
C1497      H1504   1.084       .  S
C1498      C1499   1.414       .  A
C1499      C1500   1.393       .  A
C1499     Br1506   1.924       .  S
C1500      C1501   1.404       .  A
C1500      H1505   1.083       .  S
C1501      C1502   1.416       .  A
C1502     Br1503   1.919       .  S
C1507      C1508   1.400       .  A
C1507      C1512   1.397       .  A
C1507      H1514   1.084       .  S
C1508      C1509   1.410       .  A
C1509      C1510   1.397       .  A
C1509     Br1516   1.917       .  S
C1510      C1511   1.400       .  A
C1510      H1515   1.084       .  S
C1511      C1512   1.411       .  A
C1512     Br1513   1.920       .  S
C1517      C1518   1.406       .  A
C1517      C1522   1.400       .  A
C1517      H1524   1.084       .  S
C1518      C1519   1.403       .  A
C1519      C1520   1.401       .  A
C1519     Br1526   1.918       .  S
C1520      C1521   1.409       .  A
C1520      H1525   1.084       .  S
C1521      C1522   1.406       .  A
C1522     Br1523   1.918       .  S
C1527      C1528   1.398       .  A
C1527      C1532   1.392       .  A
C1527      H1534   1.084       .  S
C1528      C1529   1.411       .  A
C1529      C1530   1.403       .  A
C1529     Br1536   1.920       .  S
C1530      C1531   1.410       .  A
C1530      H1535   1.083       .  S
C1531      C1532   1.421       .  A
C1532     Br1533   1.925       .  S
