geometry optimzed in LAMMPS
_audit_creation_date              2020-12-01 
_audit_creation_method            'lammps2cif' 
_symmetry_space_group_name_H-M    'P1' 
_symmetry_Int_Tables_number       1 
_symmetry_cell_setting            triclinic 
loop_ 
_symmetry_equiv_pos_as_xyz 
  x,y,z 
_cell_length_a                    59.13599158 
_cell_length_b                    59.42743980274094 
_cell_length_c                    42.90328028046117 
_cell_angle_alpha                 89.95574161306776 
_cell_angle_beta                  90.09479805090531 
_cell_angle_gamma                 120.65485375472275 
loop_ 
_atom_site_label 
_atom_site_type_symbol 
_atom_site_fract_x 
_atom_site_fract_y 
_atom_site_fract_z 
_atom_site_charge 
Fe1        Fe  0.53274453  0.62518157  0.24948616     1.65800
Fe2        Fe  0.50850469  0.66622038  0.24718176     1.73200
Fe3        Fe  0.57505109  0.69132347  0.25143832     1.54400
O4          O  0.58769042  0.67406018  0.28391435    -0.81500
O5          O  0.52440227  0.69182710  0.21047934    -0.79900
O6          O  0.55622645  0.63210734  0.28800048    -0.84100
O7          O  0.56378641  0.63462246  0.22003212    -0.78900
O8          O  0.56608362  0.70826324  0.28776846    -0.80700
O9          O  0.48812693  0.63669648  0.21506611    -0.83400
C10         C  0.58251590  0.65502345  0.20766009     0.97300
C11         C  0.57815830  0.65153091  0.29614873     1.04800
O12         O  0.53879203  0.66092939  0.24943807    -1.12400
O13         O  0.48925728  0.64100143  0.28371382    -0.74800
O14         O  0.50049747  0.61061106  0.27859714    -0.78300
O15         O  0.58810594  0.67793164  0.21520884    -0.79000
C16         C  0.48653068  0.61897862  0.29048328     0.96200
O17         O  0.50873086  0.61421891  0.21096786    -0.77000
O18         O  0.52436320  0.69657511  0.27878134    -0.82200
C19         C  0.54763370  0.71008022  0.20472508     0.98900
C20         C  0.54585851  0.70982406  0.29344698     1.04800
O21         O  0.56765681  0.71276793  0.21912358    -0.77800
C22         C  0.49120233  0.61917093  0.20241112     1.03100
Fe23       Fe  0.36131300  0.44899638  0.99922172     1.65800
Fe24       Fe  0.32012113  0.47333336  0.49756168     1.73200
Fe25       Fe  0.29475483  0.40669114  0.49990308     1.54400
O26         O  0.31047832  0.39303340  0.46673762    -0.81500
O27         O  0.29344871  0.45913385  0.03352973    -0.79900
O28         O  0.35322256  0.42202174  0.46487904    -0.84100
O29         O  0.35331448  0.42174116  0.03355750    -0.78900
O30         O  0.27530247  0.41327030  0.46441880    -0.80700
O31         O  0.34929224  0.49502665  0.02999397    -0.83400
C32         C  0.33296641  0.40252514  0.04530135     0.97300
C33         C  0.33321259  0.40110999  0.45550593     1.04800
O34         O  0.32532666  0.44297623  0.49892689    -1.12400
O35         O  0.34622013  0.49123526  0.46117130    -0.74800
O36         O  0.37442050  0.47727010  0.46502180    -0.78300
O37         O  0.30990873  0.39503860  0.03570483    -0.79000
C38         C  0.36697362  0.49170173  0.45244900     0.96200
O39         O  0.37393802  0.47675843  0.03352213    -0.77000
O40         O  0.29014704  0.45609738  0.46530828    -0.82200
C41         C  0.27701498  0.43656714  0.04382225     0.98900
C42         C  0.27459825  0.43317882  0.45524880     1.04800
O43         O  0.27505732  0.41569256  0.03309874    -0.77800
C44         C  0.36855859  0.49400040  0.04140456     1.03100
Fe45       Fe  0.08322591  0.45075337  0.25256777     1.65800
Fe46       Fe  0.14935613  0.47492842  0.24973552     1.73200
Fe47       Fe  0.10629452  0.40842024  0.24892628     1.54400
O48         O  0.07640754  0.39418207  0.28184783    -0.81500
O49         O  0.15976289  0.46036782  0.21236872    -0.79900
O50         O  0.06542587  0.42462883  0.28830536    -0.84100
O51         O  0.06163533  0.42264481  0.21987956    -0.78900
O52         O  0.13254034  0.41512968  0.28442126    -0.80700
O53         O  0.14102477  0.49595652  0.21798251    -0.83400
C54         C  0.06309092  0.40468248  0.20586743     0.97300
C55         C  0.06324402  0.40288522  0.29514820     1.04800
O56         O  0.11299340  0.44468797  0.25050598    -1.12400
O57         O  0.14339522  0.49341971  0.28714490    -0.74800
O58         O  0.10060860  0.47960595  0.28574087    -0.78300
O59         O  0.07964287  0.39793859  0.21285233    -0.79000
C60         C  0.12333798  0.49359496  0.29732765     0.96200
O61         O  0.09745689  0.47742633  0.21672213    -0.77000
O62         O  0.16257425  0.45759794  0.28074786    -0.82200
C63         C  0.15326057  0.43754854  0.20328067     0.98900
C64         C  0.15433575  0.43499879  0.29212473     1.04800
O65         O  0.13493438  0.41696836  0.21579809    -0.77800
C66         C  0.12017060  0.49377091  0.20664892     1.03100
Fe67       Fe  0.53532580  0.90517011  0.00435103     1.65800
Fe68       Fe  0.50902605  0.83900057  0.50154447     1.73200
Fe69       Fe  0.57611640  0.88016929  0.49835038     1.54400
O70         O  0.58728697  0.90778638  0.46342709    -0.81500
O71         O  0.52590209  0.82511676  0.03233220    -0.79900
O72         O  0.56265502  0.92569482  0.47044478    -0.84100
O73         O  0.56304315  0.92251712  0.03899049    -0.78900
O74         O  0.56588444  0.85225994  0.46381106    -0.80700
O75         O  0.49162440  0.84604027  0.03920265    -0.83400
C76         C  0.58418922  0.92311700  0.04591824     0.97300
C77         C  0.58082897  0.92447454  0.45636980     1.04800
O78         O  0.54016736  0.87474687  0.50148579    -1.12400
O79         O  0.48813234  0.84811920  0.47050005    -0.74800
O80         O  0.50695110  0.89142034  0.46999479    -0.78300
O81         O  0.59161616  0.90895802  0.03247581    -0.79000
C82         C  0.48963357  0.86892975  0.46043922     0.96200
O83         O  0.50727249  0.88896047  0.03863857    -0.77000
O84         O  0.52221772  0.82731873  0.46400073    -0.82200
C85         C  0.54890588  0.83230683  0.04203770     0.98900
C86         C  0.54455656  0.83361207  0.45292076     1.04800
O87         O  0.56918942  0.85304565  0.03272203    -0.77800
C88         C  0.49248874  0.86637153  0.04988911     1.03100
Fe89       Fe  0.90272479  0.36488837  0.99558587     1.65800
Fe90       Fe  0.83673311  0.32334556  0.50121728     1.73200
Fe91       Fe  0.87857272  0.29933316  0.50148491     1.54400
O92         O  0.90872536  0.31502793  0.46867151    -0.81500
O93         O  0.82674141  0.29936062  0.03940082    -0.79900
O94         O  0.91729129  0.35529292  0.45783497    -0.84100
O95         O  0.92604730  0.35817640  0.02500749    -0.78900
O96         O  0.85190916  0.27963657  0.46602948    -0.80700
O97         O  0.84716555  0.35420392  0.03176145    -0.83400
C98         C  0.92445426  0.33935386  0.04070733     0.97300
C99         C  0.92060421  0.33611885  0.45303927     1.04800
O100        O  0.87259332  0.32910850  0.49939158    -1.12400
O101        O  0.84208940  0.34649994  0.46300903    -0.74800
O102        O  0.88438585  0.37718253  0.46502109    -0.78300
O103        O  0.90553885  0.31602461  0.03746063    -0.79000
C104        C  0.86164349  0.36756819  0.45332282     0.96200
O105        O  0.89095889  0.37778955  0.03338742    -0.77000
O106        O  0.82195179  0.29171942  0.47125905    -0.82200
C107        C  0.83201381  0.28209546  0.04764818     0.98900
C108        C  0.82998239  0.27754158  0.45914436     1.04800
O109        O  0.84962346  0.27927530  0.03450119    -0.77800
C110        C  0.86853079  0.37242929  0.04329301     1.03100
Fe111      Fe  0.62386981  0.08145222  0.24703386     1.65800
Fe112      Fe  0.66475115  0.14770499  0.25078235     1.73200
Fe113      Fe  0.69060318  0.10720698  0.25037727     1.54400
O114        O  0.67472225  0.07870392  0.28438441    -0.81500
O115        O  0.69460838  0.16209475  0.21845950    -0.79900
O116        O  0.63128190  0.06044109  0.27924741    -0.84100
O117        O  0.63332272  0.06473653  0.21119100    -0.78900
O118        O  0.70936449  0.13456748  0.28537510    -0.80700
O119        O  0.63921286  0.14097006  0.21446469    -0.83400
C120        C  0.65385641  0.06473777  0.20269169     0.97300
C121        C  0.65134674  0.06135461  0.29117866     1.04800
O122        O  0.65975698  0.11211633  0.24944432    -1.12400
O123        O  0.63517196  0.13796006  0.28288750    -0.74800
O124        O  0.60980073  0.09457166  0.28244326    -0.78300
O125        O  0.67610458  0.07889729  0.21556822    -0.79000
C126        C  0.61531198  0.11693454  0.29235615     0.96200
O127        O  0.61146785  0.09792812  0.21420400    -0.77000
O128        O  0.69077883  0.15907778  0.28742157    -0.82200
C129        C  0.70982091  0.15504141  0.20713919     0.98900
C130        C  0.70692630  0.15271643  0.29743318     1.04800
O131        O  0.71028447  0.13500115  0.21634771    -0.77800
C132        C  0.61896009  0.12072339  0.20424109     1.03100
Fe133      Fe  0.89936783  0.53359085  0.25491694     1.65800
Fe134      Fe  0.83379337  0.50978653  0.24873816     1.73200
Fe135      Fe  0.87686065  0.57569138  0.25030915     1.54400
O136        O  0.90739327  0.58928674  0.28276746    -0.81500
O137        O  0.82496084  0.52458397  0.21041660    -0.79900
O138        O  0.91257058  0.55568423  0.29468629    -0.84100
O139        O  0.92413006  0.56522680  0.22737413    -0.78900
O140        O  0.85130435  0.56858390  0.28681278    -0.80700
O141        O  0.84417267  0.48915249  0.21827727    -0.83400
C142        C  0.92178707  0.58142520  0.21039537     0.97300
C143        C  0.91675087  0.57848062  0.29990052     1.04800
O144        O  0.86986289  0.53962253  0.25132850    -1.12400
O145        O  0.83807899  0.49131510  0.28689236    -0.74800
O146        O  0.87962253  0.50113208  0.28305718    -0.78300
O147        O  0.90272678  0.58537296  0.21338057    -0.79000
C148        C  0.85690860  0.48822638  0.29492244     0.96200
O149        O  0.88804282  0.51084505  0.21539996    -0.77000
O150        O  0.81951798  0.52710415  0.27890162    -0.82200
C151        C  0.82967818  0.54740915  0.20421165     0.98900
C152        C  0.82890801  0.54889749  0.29314677     1.04800
O153        O  0.84731482  0.56763373  0.21820735    -0.77800
C154        C  0.86553575  0.49313641  0.20602397     1.03100
Fe155      Fe  0.44962528  0.07936606  0.00001856     1.65800
Fe156      Fe  0.47438640  0.14500726  0.49976855     1.73200
Fe157      Fe  0.40767981  0.10280095  0.50139528     1.54400
O158        O  0.39343499  0.07194803  0.46988180    -0.81500
O159        O  0.46057299  0.15642953  0.03706681    -0.79900
O160        O  0.42540484  0.06304931  0.46237897    -0.84100
O161        O  0.41934198  0.05725099  0.03044540    -0.78900
O162        O  0.41455708  0.12764094  0.46400966    -0.80700
O163        O  0.49595917  0.13661435  0.03072674    -0.83400
C164        C  0.40171793  0.05920340  0.04487144     0.97300
C165        C  0.40335011  0.06038092  0.45540621     1.04800
O166        O  0.44389052  0.10913374  0.50048814    -1.12400
O167        O  0.49182073  0.13789518  0.46217219    -0.74800
O168        O  0.48070656  0.09655257  0.46950819    -0.78300
O169        O  0.39694953  0.07734728  0.03905933    -0.79000
C170        C  0.49420643  0.11833963  0.45591940     0.96200
O171        O  0.47488670  0.09333688  0.03735678    -0.77000
O172        O  0.45699528  0.15801921  0.46862340    -0.82200
C173        C  0.43773168  0.15140846  0.04469506     0.98900
C174        C  0.43463743  0.14912606  0.45589522     1.04800
O175        O  0.41687862  0.13290422  0.03261983    -0.77800
C176        C  0.49353726  0.11623941  0.04358286     1.03100
Fe177      Fe  0.61937901  0.53356013  0.00225095     1.65800
Fe178      Fe  0.66064145  0.50939632  0.49812148     1.73200
Fe179      Fe  0.68589520  0.57593052  0.50122803     1.54400
O180        O  0.67098885  0.58824413  0.46576803    -0.81500
O181        O  0.69115240  0.52531357  0.03010829    -0.79900
O182        O  0.62746224  0.56323787  0.47099104    -0.84100
O183        O  0.62767819  0.55795518  0.03958645    -0.78900
O184        O  0.70677925  0.56851416  0.46777140    -0.80700
O185        O  0.63516091  0.48953748  0.03434052    -0.83400
C186        C  0.64728279  0.57967460  0.04765032     0.97300
C187        C  0.64771717  0.58203338  0.45840145     1.04800
O188        O  0.65535252  0.53963824  0.50053170    -1.12400
O189        O  0.63084262  0.48937574  0.46568936    -0.74800
O190        O  0.60657938  0.50823931  0.46519045    -0.78300
O191        O  0.66957290  0.58906357  0.03455921    -0.79000
C192        C  0.61204371  0.49159458  0.45493548     0.96200
O193        O  0.60629346  0.50301718  0.03358714    -0.77000
O194        O  0.68670067  0.52529233  0.46168422    -0.82200
C195        C  0.70562981  0.54737697  0.04304645     0.98900
C196        C  0.70428846  0.54834558  0.45422131     1.04800
O197        O  0.70425897  0.56754109  0.03665346    -0.77800
C198        C  0.61429061  0.48828273  0.04398058     1.03100
Fe199      Fe  0.44384675  0.35641723  0.24666978     1.65800
Fe200      Fe  0.47096707  0.31770848  0.25126536     1.73200
Fe201      Fe  0.40358486  0.28964962  0.25009877     1.54400
O202        O  0.38936991  0.30487698  0.28303748    -0.81500
O203        O  0.45670368  0.28900684  0.21733955    -0.79900
O204        O  0.41450028  0.34812654  0.27816175    -0.84100
O205        O  0.41786171  0.34612051  0.21052103    -0.78900
O206        O  0.41233592  0.27183814  0.28610994    -0.80700
O207        O  0.49099643  0.34473708  0.21659896    -0.83400
C208        C  0.39746826  0.32532220  0.20175232     0.97300
C209        C  0.39493933  0.32796717  0.28964948     1.04800
O210        O  0.43942034  0.32120701  0.24938739    -1.12400
O211        O  0.48893184  0.34622360  0.28536780    -0.74800
O212        O  0.47036889  0.37073862  0.28289954    -0.78300
O213        O  0.38982133  0.30310886  0.21409230    -0.79000
C214        C  0.48654599  0.36516480  0.29488528     0.96200
O215        O  0.47360713  0.37017018  0.21418782    -0.77000
O216        O  0.45585653  0.29004355  0.28609665    -0.82200
C217        C  0.43410277  0.27204141  0.20724623     0.98900
C218        C  0.43332370  0.27374780  0.29673411     1.04800
O219        O  0.41304458  0.27031266  0.21716949    -0.77800
C220        C  0.49024819  0.36409128  0.20551010     1.03100
Fe221      Fe  0.07865877  0.61994929  0.00047741     1.65800
Fe222      Fe  0.14490143  0.66106079  0.50121393     1.73200
Fe223      Fe  0.10410492  0.68608862  0.50105111     1.54400
O224        O  0.07279873  0.66910398  0.46982949    -0.81500
O225        O  0.15613271  0.68614544  0.03843690    -0.79900
O226        O  0.06244219  0.62771774  0.46262103    -0.84100
O227        O  0.05714783  0.62883828  0.03075915    -0.78900
O228        O  0.12910899  0.70323789  0.46352467    -0.80700
O229        O  0.13555757  0.63116336  0.03251842    -0.83400
C230        C  0.06014922  0.64897486  0.04480196     0.97300
C231        C  0.06015727  0.64724442  0.45584233     1.04800
O232        O  0.10921683  0.65571684  0.50088748    -1.12400
O233        O  0.13758937  0.63635485  0.46412384    -0.74800
O234        O  0.09557714  0.60558545  0.47008349    -0.78300
O235        O  0.07860793  0.67197471  0.03853889    -0.79000
C236        C  0.11791830  0.61422584  0.45745462     0.96200
O237        O  0.09202442  0.60879770  0.03845669    -0.77000
O238        O  0.15920027  0.69160914  0.46988851    -0.82200
C239        C  0.15167378  0.70408660  0.04610146     0.98900
C240        C  0.15052343  0.70454039  0.45600006     1.04800
O241        O  0.13447551  0.70739588  0.03248895    -0.77800
C242        C  0.11488320  0.61377250  0.04598270     1.03100
Fe243      Fe  0.36004460  0.90195568  0.25198990     1.65800
Fe244      Fe  0.31946884  0.83624514  0.25164893     1.73200
Fe245      Fe  0.29392507  0.87639016  0.25205220     1.54400
O246        O  0.31149595  0.90771090  0.28303126    -0.81500
O247        O  0.29439599  0.82507087  0.21405936    -0.79900
O248        O  0.35239969  0.91625656  0.29142106    -0.84100
O249        O  0.35049066  0.92424182  0.22385915    -0.78900
O250        O  0.27726832  0.85192684  0.28974514    -0.80700
O251        O  0.35022980  0.84652749  0.22063435    -0.83400
C252        C  0.33032727  0.92048472  0.20890201     0.97300
C253        C  0.33305377  0.91897016  0.29810313     1.04800
O254        O  0.32438255  0.87144363  0.25182715    -1.12400
O255        O  0.34394149  0.84382296  0.28935455    -0.74800
O256        O  0.37550672  0.88474836  0.28001497    -0.78300
O257        O  0.30752068  0.90119780  0.21410156    -0.79000
C258        C  0.36672962  0.86320503  0.29429337     0.96200
O259        O  0.37035920  0.88960636  0.21273872    -0.77000
O260        O  0.28833999  0.82154081  0.28266661    -0.82200
C261        C  0.27587379  0.82909981  0.20721975     0.98900
C262        C  0.27522438  0.83014890  0.29632642     1.04800
O263        O  0.27222009  0.84577529  0.22133034    -0.77800
C264        C  0.36668384  0.86717235  0.20615769     1.03100
C265        C  0.19820114  0.73512840  0.38840390    -0.22300
C266        C  0.20257765  0.76060269  0.38881469     0.09600
C267        C  0.18843389  0.76707305  0.40980517     0.10000
C268        C  0.17064131  0.74797098  0.43056609    -0.17300
C269        C  0.16675530  0.72258974  0.43083860    -0.27700
C270        C  0.18026012  0.71591043  0.40882026     0.18400
C271        C  0.22162537  0.77987764  0.36638591     0.12300
C272        C  0.19273491  0.79431560  0.41093583    -0.12000
H273        H  0.16040305  0.75314775  0.44741019     0.12600
C274        C  0.17576529  0.68866016  0.40530697    -0.22900
H275        H  0.20867424  0.73011952  0.37168095     0.08300
C276        C  0.24898788  0.79080798  0.37016225     0.04600
C277        C  0.26610676  0.80753544  0.34706905    -0.20100
C278        C  0.25644433  0.81371638  0.32054276    -0.12400
C279        C  0.22903566  0.80302839  0.31699340     0.13300
C280        C  0.21199638  0.78625662  0.34004474    -0.22800
C281        C  0.26008690  0.78495177  0.39859836    -0.05900
H282        H  0.28712934  0.81577739  0.34963172     0.14800
C283        C  0.21692093  0.80787517  0.28870409    -0.16100
H284        H  0.19094556  0.77756055  0.33709347     0.09200
H285        H  0.19385896  0.68857331  0.41204557     0.07000
H286        H  0.17109504  0.68240822  0.38059398     0.08200
H287        H  0.15905030  0.67385066  0.41923192     0.07300
H288        H  0.18733409  0.79924122  0.38822234     0.02100
H289        H  0.21372713  0.80856973  0.41600902     0.02600
H290        H  0.18061213  0.79625015  0.42929410     0.06100
H291        H  0.28191709  0.79567538  0.39822027     0.05100
H292        H  0.25299496  0.76371892  0.39978111    -0.00700
H293        H  0.25377104  0.79087329  0.41988503     0.00800
H294        H  0.20316562  0.78892661  0.27732996     0.04500
H295        H  0.23150550  0.82044818  0.27097758     0.06400
H296        H  0.20577504  0.81738916  0.29598783     0.07300
C297        C  0.19279334  0.73280316  0.11961779    -0.22300
C298        C  0.20158809  0.75940594  0.11567353     0.09600
C299        C  0.19297886  0.76766557  0.08976971     0.10000
C300        C  0.17608537  0.74907236  0.06790623    -0.17300
C301        C  0.16785933  0.72243497  0.07119918    -0.27700
C302        C  0.17599223  0.71414171  0.09777115     0.18400
C303        C  0.22027204  0.77828507  0.13873556     0.12300
C304        C  0.20169305  0.79608804  0.08523518    -0.12000
H305        H  0.16984150  0.75547931  0.04769382     0.12600
C306        C  0.16659619  0.68567772  0.10377923    -0.22900
H307        H  0.19935979  0.72668739  0.13980738     0.08300
C308        C  0.21163583  0.78249586  0.16757942     0.04600
C309        C  0.23023557  0.79996751  0.18907018    -0.20100
C310        C  0.25726692  0.81307338  0.18242351    -0.12400
C311        C  0.26581312  0.80936830  0.15306732     0.13300
C312        C  0.24716798  0.79178304  0.13174475    -0.22800
C313        C  0.18284188  0.76838882  0.17568461    -0.05900
H314        H  0.22370947  0.80282822  0.21153552     0.14800
C315        C  0.29422258  0.82411180  0.14299029    -0.16100
H316        H  0.25363873  0.78864462  0.10938434     0.09200
H317        H  0.17326192  0.68274740  0.12684925     0.07000
H318        H  0.17451771  0.67807616  0.08588967     0.08200
H319        H  0.14476950  0.67409430  0.10345047     0.07300
H320        H  0.22341187  0.80780657  0.08298039     0.02100
H321        H  0.19555962  0.80325242  0.10556693     0.02600
H322        H  0.19295214  0.79920225  0.06391737     0.06100
H323        H  0.17941781  0.77407543  0.19908007     0.05100
H324        H  0.17481666  0.74694629  0.17573123    -0.00700
H325        H  0.17200914  0.77313952  0.15823927     0.00800
H326        H  0.30123075  0.81016375  0.13944619     0.04500
H327        H  0.30742102  0.83926804  0.15985566     0.06400
H328        H  0.29597079  0.83432129  0.12064572     0.07300
C329        C  0.53087423  0.39177098  0.36667465    -0.22300
C330        C  0.54022603  0.41856986  0.36357864     0.09600
C331        C  0.53140139  0.42758228  0.33865865     0.10000
C332        C  0.51359526  0.40952431  0.31706730    -0.17300
C333        C  0.50416588  0.38256012  0.31985987    -0.27700
C334        C  0.51249657  0.37351481  0.34556455     0.18400
C335        C  0.55857566  0.43684430  0.38730731     0.12300
C336        C  0.54096286  0.45627946  0.33470897    -0.12000
H337        H  0.50732120  0.41661287  0.29753237     0.12600
C338        C  0.50162965  0.34494219  0.35264269    -0.22900
H339        H  0.53738620  0.38498461  0.38629387     0.08300
C340        C  0.54925273  0.44393653  0.41350225     0.04600
C341        C  0.56734761  0.46211634  0.43475753    -0.20100
C342        C  0.59459115  0.47320512  0.43068602    -0.12400
C343        C  0.60391178  0.46602696  0.40429368     0.13300
C344        C  0.58568214  0.44770480  0.38311185    -0.22800
C345        C  0.52020890  0.43206305  0.41920763    -0.05900
H346        H  0.56013625  0.46739724  0.45504208     0.14800
C347        C  0.63269364  0.47794421  0.39678742    -0.16100
H348        H  0.59267253  0.44226940  0.36274947     0.09200
H349        H  0.49443765  0.34087357  0.37706925     0.07000
H350        H  0.51739098  0.34016498  0.34999358     0.08200
H351        H  0.48471221  0.33161796  0.33783161     0.07300
H352        H  0.56266015  0.46738600  0.33200610     0.02100
H353        H  0.53560149  0.46374539  0.35540561     0.02600
H354        H  0.53219258  0.45999349  0.31384642     0.06100
H355        H  0.51629586  0.43963538  0.44094953     0.05100
H356        H  0.51076910  0.41050350  0.42138096    -0.00700
H357        H  0.51101233  0.43665209  0.39955403     0.00800
H358        H  0.63806431  0.46257133  0.39770113     0.04500
H359        H  0.64582853  0.49405263  0.41263023     0.06400
H360        H  0.63650381  0.48629557  0.37289977     0.07300
C361        C  0.57446214  0.42469599  0.08940922    -0.22300
C362        C  0.56372346  0.43281514  0.11285719     0.09600
C363        C  0.57083094  0.45932070  0.11467152     0.10000
C364        C  0.58777400  0.47700405  0.09220813    -0.17300
C365        C  0.59829716  0.46897070  0.06832359    -0.27700
C366        C  0.59182072  0.44249105  0.06713384     0.18400
C367        C  0.54477422  0.41335595  0.13522762     0.12300
C368        C  0.56046186  0.46890557  0.14031991    -0.12000
H369        H  0.59283487  0.49728004  0.09326010     0.12600
C370        C  0.60223410  0.43264297  0.04182535    -0.22900
H371        H  0.56895450  0.40429409  0.08835234     0.08300
C372        C  0.51741577  0.40072721  0.13003254     0.04600
C373        C  0.50011537  0.38452841  0.15332723    -0.20100
C374        C  0.50956207  0.38044087  0.18152034    -0.12400
C375        C  0.53706864  0.39286649  0.18650838     0.13300
C376        C  0.55429064  0.40897793  0.16309653    -0.22800
C377        C  0.50652906  0.40452190  0.10001158    -0.05900
H378        H  0.47907205  0.37503306  0.14957927     0.14800
C379        C  0.54907880  0.39087888  0.21667915    -0.08900
H380        H  0.57533932  0.41898867  0.16706532     0.09200
H381        H  0.59670580  0.43664582  0.01861094     0.07000
H382        H  0.59416627  0.41123131  0.04370413     0.08200
H383        H  0.62395145  0.44244490  0.04359122     0.07300
H384        H  0.56659042  0.46518141  0.16330074     0.02100
H385        H  0.53868001  0.45852704  0.13927863     0.02600
H386        H  0.56804991  0.49022531  0.13838485     0.06100
H387        H  0.48469373  0.39317041  0.09972164     0.05100
H388        H  0.51367729  0.39791196  0.08011643    -0.00700
H389        H  0.51302521  0.42549819  0.09686016     0.00800
H390        H  0.56106018  0.38168283  0.21221486     0.04500
H391        H  0.53440990  0.37941150  0.23486090     0.06400
H392        H  0.56206124  0.41079824  0.22629143     0.07300
C393        C  0.38712603  0.02252757  0.37997448    -0.22300
C394        C  0.36232797  0.00110968  0.38705129     0.09600
C395        C  0.34972681  0.00081777  0.41503125     0.10000
C396        C  0.36290748  0.02153030  0.43621777    -0.17300
C397        C  0.38842812  0.04223303  0.42996818    -0.27700
C398        C  0.40028933  0.04327548  0.40096912     0.18400
C399        C  0.35119721  0.97833378  0.36594174     0.12300
C400        C  0.32272900  0.97837632  0.42275107    -0.12000
H401        H  0.35385556  0.02086884  0.45841751     0.12600
C402        C  0.42667752  0.06594312  0.39135910    -0.22900
H403        H  0.39652463  0.02275618  0.35819527     0.08300
C404        C  0.33816059  0.97765274  0.33813288     0.04600
C405        C  0.33074563  0.95688671  0.31722623    -0.20100
C406        C  0.33649366  0.93712587  0.32346072    -0.12400
C407        C  0.34823203  0.93710730  0.35224190     0.13300
C408        C  0.35564518  0.95789677  0.37299172    -0.22800
C409        C  0.33273916  0.99915555  0.33024867    -0.05900
H410        H  0.32171350  0.95682734  0.29519217     0.14800
C411        C  0.35303371  0.91548655  0.36199195    -0.16100
H412        H  0.36542098  0.95843708  0.39462937     0.09200
H413        H  0.42460483  0.07395801  0.36884500     0.07000
H414        H  0.44086637  0.05911705  0.38834013     0.08200
H415        H  0.43491815  0.08226350  0.40835942     0.07300
H416        H  0.32306906  0.95989255  0.42397566     0.02100
H417        H  0.30859819  0.97654682  0.40443853     0.02600
H418        H  0.31565999  0.98128879  0.44551084     0.06100
H419        H  0.32223284  0.99552113  0.30765544     0.05100
H420        H  0.35152532  0.01810954  0.32856759    -0.00700
H421        H  0.32036079  0.00053038  0.34870422     0.00800
H422        H  0.37448980  0.92335640  0.36429513     0.04500
H423        H  0.34474835  0.89883311  0.34547144     0.06400
H424        H  0.34356826  0.90758821  0.38490883     0.07300
C425        C  0.34857972  0.01032141  0.10081243    -0.22300
C426        C  0.36287652  0.00105667  0.11685078     0.09600
C427        C  0.38949712  0.01094844  0.10937090     0.10000
C428        C  0.40142863  0.03034709  0.08652069    -0.17300
C429        C  0.38729786  0.03968580  0.06993218    -0.27700
C430        C  0.36020192  0.02907078  0.07689199     0.18400
C431        C  0.34977665  0.98022703  0.14065214     0.12300
C432        C  0.40523224  0.00060420  0.12505514    -0.12000
H433        H  0.42203095  0.03807750  0.08131720     0.12600
C434        C  0.34232663  0.03549640  0.05879326    -0.22900
H435        H  0.32795953  0.00220298  0.10628426     0.08300
C436        C  0.35274576  0.98625583  0.17271758     0.04600
C437        C  0.34500382  0.96603382  0.19452563    -0.20100
C438        C  0.33405763  0.93991431  0.18499003    -0.12400
C439        C  0.32953683  0.93368646  0.15288412     0.13300
C440        C  0.33740354  0.95400947  0.13110770    -0.22800
C441        C  0.36466706  0.01408366  0.18382295    -0.05900
H442        H  0.34819769  0.97068860  0.21916149     0.14800
C443        C  0.31804437  0.90622022  0.14054441    -0.16100
H444        H  0.33522116  0.94950618  0.10641478     0.09200
H445        H  0.33527960  0.04560717  0.07427232     0.07000
H446        H  0.32505668  0.01707985  0.05027668     0.08200
H447        H  0.35153267  0.04771192  0.03798270     0.07300
H448        H  0.39586397  0.97927245  0.12067725     0.02100
H449        H  0.40615301  0.00406520  0.15054760     0.02600
H450        H  0.42569918  0.01024452  0.11613972     0.06100
H451        H  0.36542061  0.01534581  0.20966871     0.05100
H452        H  0.35267563  0.02234123  0.17524937    -0.00700
H453        H  0.38501628  0.02616015  0.17488044     0.00800
H454        H  0.29959680  0.90057233  0.12767140     0.04500
H455        H  0.31348753  0.89149062  0.15900667     0.06400
H456        H  0.33220693  0.90542938  0.12427627     0.07300
C457        C  0.42134317  0.19811768  0.08561873    -0.22300
C458        C  0.43384905  0.20127090  0.11437509     0.09600
C459        C  0.44709895  0.18759228  0.12043999     0.10000
C460        C  0.44781120  0.17123521  0.09733471    -0.17300
C461        C  0.43544532  0.16815300  0.06839627    -0.27700
C462        C  0.42215527  0.18194684  0.06236532     0.18400
C463        C  0.43353037  0.21966489  0.13743504     0.12300
C464        C  0.46067346  0.19049412  0.15116764    -0.12000
H465        H  0.45808908  0.16079400  0.10184048     0.12600
C466        C  0.40970882  0.18121996  0.03135997    -0.22900
H467        H  0.41141841  0.20889673  0.08100933     0.08300
C468        C  0.45247230  0.24659065  0.13664341     0.04600
C469        C  0.45190279  0.26319893  0.15946329    -0.20100
C470        C  0.43256584  0.25361282  0.18282704    -0.12400
C471        C  0.41322321  0.22659816  0.18316125     0.13300
C472        C  0.41406111  0.20997661  0.16047487    -0.22800
C473        C  0.47338354  0.25772608  0.11182945    -0.05900
H474        H  0.46665066  0.28384865  0.15903550     0.14800
C475        C  0.39224980  0.21492688  0.20790614    -0.16100
H476        H  0.39957775  0.18924497  0.16078743     0.09200
H477        H  0.41857024  0.20141659  0.02203915     0.07000
H478        H  0.38828752  0.17306765  0.03455709     0.08200
H479        H  0.41250585  0.16945900  0.01347289     0.07300
H480        H  0.44614819  0.18410814  0.17040391     0.02100
H481        H  0.47609533  0.21126802  0.15483922     0.02600
H482        H  0.47016575  0.17848884  0.15207975     0.06100
H483        H  0.48670581  0.27915787  0.11462175     0.05100
H484        H  0.46405546  0.25412505  0.08847156    -0.00700
H485        H  0.48542433  0.24828235  0.11308599     0.00800
H486        H  0.37980060  0.19335042  0.20549439     0.04500
H487        H  0.37914218  0.22313684  0.20598287     0.06400
H488        H  0.40148463  0.21920133  0.23137012     0.07300
C489        C  0.41344897  0.22821576  0.36750256    -0.22300
C490        C  0.43015849  0.21809894  0.36391174     0.09600
C491        C  0.44809551  0.22676325  0.33892304     0.10000
C492        C  0.44858230  0.24499535  0.31774539    -0.17300
C493        C  0.43187002  0.25524089  0.32109558    -0.27700
C494        C  0.41441828  0.24709706  0.34684516     0.18400
C495        C  0.43016356  0.20009691  0.38792847     0.12300
C496        C  0.46706432  0.21712104  0.33493734    -0.12000
H497        H  0.46208005  0.25119201  0.29823144     0.12600
C498        C  0.39767146  0.25877994  0.35448586    -0.22900
H499        H  0.40019170  0.22200218  0.38726372     0.08300
C500        C  0.44366278  0.20985926  0.41634829     0.04600
C501        C  0.44433803  0.19251849  0.43793549    -0.20100
C502        C  0.43219371  0.16559020  0.43174417    -0.12400
C503        C  0.41906466  0.15581415  0.40287779     0.13300
C504        C  0.41788748  0.17321497  0.38156414    -0.22800
C505        C  0.45788580  0.23869329  0.42361570    -0.05900
H506        H  0.45454205  0.20009398  0.45989589     0.14800
C507        C  0.40737840  0.12769688  0.39288504    -0.16100
H508        H  0.40801354  0.16589952  0.35937698     0.09200
H509        H  0.40181382  0.26635511  0.37875351     0.07000
H510        H  0.37657487  0.24348791  0.35263625     0.08200
H511        H  0.40153654  0.27542694  0.33932287     0.07300
H512        H  0.45605148  0.19560219  0.33151972     0.02100
H513        H  0.47966795  0.22199719  0.35598951     0.02600
H514        H  0.48008025  0.22621256  0.31445890     0.06100
H515        H  0.46787329  0.24306571  0.44663642     0.05100
H516        H  0.44372496  0.24570681  0.42404773    -0.00700
H517        H  0.47302886  0.24964403  0.40555498     0.00800
H518        H  0.38583359  0.11866901  0.38968624     0.04500
H519        H  0.41100783  0.11568495  0.40957904     0.06400
H520        H  0.41620846  0.12698129  0.37034858     0.07300
C521        C  0.95405980  0.59496404  0.37624570    -0.22300
C522        C  0.97594475  0.61935751  0.36897351     0.09600
C523        C  0.97637382  0.63185103  0.34084481     0.10000
C524        C  0.95561707  0.61876565  0.31952853    -0.17300
C525        C  0.93460346  0.59345902  0.32578112    -0.27700
C526        C  0.93315061  0.58199574  0.35521610     0.18400
C527        C  0.99907114  0.63003534  0.38987117     0.12300
C528        C  0.99897912  0.65868129  0.33311205    -0.12000
H529        H  0.95655533  0.62771105  0.29716933     0.12600
C530        C  0.90988256  0.55631326  0.36536512    -0.22900
H531        H  0.95359486  0.58568160  0.39820298     0.08300
C532        C  0.99980147  0.64185978  0.41862211     0.04600
C533        C  0.02096725  0.64883082  0.43904791    -0.20100
C534        C  0.04110645  0.64383993  0.43141080    -0.12400
C535        C  0.04094747  0.63316644  0.40189546     0.13300
C536        C  0.01982991  0.62628487  0.38158290    -0.22800
C537        C  0.97805301  0.64665245  0.42786523    -0.05900
H538        H  0.02115523  0.65704256  0.46167040     0.14800
C539        C  0.06273760  0.62894537  0.39093823    -0.16100
H540        H  0.01925713  0.61738535  0.35931257     0.09200
H541        H  0.90198331  0.55917634  0.38752300     0.07000
H542        H  0.91620912  0.54187730  0.36934229     0.08200
H543        H  0.89355357  0.54818982  0.34825177     0.07300
H544        H  0.01751844  0.65829179  0.33185496     0.02100
H545        H  0.00087929  0.67273417  0.35143318     0.02600
H546        H  0.99604599  0.66577236  0.31036050     0.06100
H547        H  0.98181642  0.65634039  0.45097587     0.05100
H548        H  0.95913026  0.62780324  0.42915970    -0.00700
H549        H  0.97633159  0.65945626  0.41033389     0.00800
H550        H  0.05485603  0.60775221  0.38704577     0.04500
H551        H  0.07937643  0.63630111  0.40756279     0.06400
H552        H  0.07075984  0.63950648  0.36861492     0.07300
C553        C  0.02680930  0.64245273  0.12267091    -0.22300
C554        C  0.00034914  0.62915562  0.11341461     0.09600
C555        C  0.99396656  0.62510426  0.08145596     0.10000
C556        C  0.01417522  0.63287202  0.05952354    -0.17300
C557        C  0.04061178  0.64494229  0.06880358    -0.27700
C558        C  0.04711853  0.65041901  0.10074727     0.18400
C559        C  0.97971779  0.61701282  0.13763630     0.12300
C560        C  0.96582807  0.61221832  0.07059632    -0.12000
H561        H  0.00929989  0.62895464  0.03499247     0.12600
C562        C  0.07494367  0.66322317  0.11277530    -0.22900
H563        H  0.03157631  0.64553267  0.14729380     0.08300
C564        C  0.97004802  0.59092947  0.14697512     0.04600
C565        C  0.95113890  0.58017313  0.17057890    -0.20100
C566        C  0.94168274  0.59482769  0.18550219    -0.12400
C567        C  0.95179776  0.62125429  0.17641521     0.13300
C568        C  0.97041709  0.63182314  0.15221460    -0.22800
C569        C  0.97993937  0.57449392  0.13231716    -0.05900
H570        H  0.94365826  0.56003384  0.17745242     0.14800
C571        C  0.94475554  0.63942920  0.19244003    -0.16100
H572        H  0.97827120  0.65199942  0.14520628     0.09200
H573        H  0.07666204  0.64991133  0.12951802     0.07000
H574        H  0.07994299  0.68165073  0.12502158     0.08200
H575        H  0.08967063  0.66798946  0.09417777     0.07300
H576        H  0.95708051  0.62391449  0.07847504     0.02100
H577        H  0.95422317  0.59219220  0.08036511     0.02600
H578        H  0.96432402  0.61070123  0.04478741     0.06100
H579        H  0.97047536  0.55458466  0.14263638     0.05100
H580        H  0.00148771  0.58396166  0.13590566    -0.00700
H581        H  0.97568881  0.57233418  0.10695657     0.00800
H582        H  0.96303241  0.65733661  0.20004538     0.04500
H583        H  0.93264939  0.63103486  0.21356804     0.06400
H584        H  0.93410801  0.64514276  0.17588089     0.07300
C585        C  0.76957148  0.56859655  0.08677870    -0.22300
C586        C  0.76064453  0.55017145  0.11090757     0.09600
C587        C  0.73367597  0.53116799  0.11296093     0.10000
C588        C  0.71617743  0.53096299  0.09064974    -0.17300
C589        C  0.72500762  0.54940986  0.06640843    -0.27700
C590        C  0.75218875  0.56831640  0.06422596     0.18400
C591        C  0.77985168  0.55088558  0.13370252     0.12300
C592        C  0.72345417  0.51100861  0.13857241    -0.12000
H593        H  0.69545338  0.51632425  0.09212312     0.12600
C594        C  0.76391238  0.58764799  0.03778592    -0.22900
H595        H  0.79037398  0.58296257  0.08515873     0.08300
C596        C  0.79365783  0.53771648  0.12808636     0.04600
C597        C  0.81032150  0.53751766  0.15129285    -0.20100
C598        C  0.81348524  0.55018608  0.17997970    -0.12400
C599        C  0.79955993  0.56340937  0.18553339     0.13300
C600        C  0.78326855  0.56390277  0.16205217    -0.22800
C601        C  0.79043995  0.52353943  0.09783078    -0.05900
H602        H  0.82074427  0.52717221  0.14717941     0.14800
C603        C  0.79992875  0.57582858  0.21635089    -0.16100
H604        H  0.77233227  0.57371028  0.16632593     0.09200
H605        H  0.77931546  0.58525977  0.02612383     0.07000
H606        H  0.77307764  0.60785639  0.04712165     0.08200
H607        H  0.74949227  0.58512749  0.01964539     0.07300
H608        H  0.72764706  0.52086189  0.16159876     0.02100
H609        H  0.73315733  0.49922360  0.13732670     0.02600
H610        H  0.70188868  0.49747242  0.13668671     0.06100
H611        H  0.80251506  0.51409610  0.09731270     0.05100
H612        H  0.79664242  0.53756630  0.07812534    -0.00700
H613        H  0.76953616  0.50809682  0.09459189     0.00800
H614        H  0.80829278  0.59716291  0.21304438     0.04500
H615        H  0.81132193  0.57291645  0.23472180     0.06400
H616        H  0.77950487  0.56712820  0.22517568     0.07300
C617        C  0.75028506  0.57096268  0.38360045    -0.22300
C618        C  0.76038513  0.55414913  0.38570134     0.09600
C619        C  0.75207849  0.53581572  0.41022577     0.10000
C620        C  0.73391093  0.53470173  0.43204916    -0.17300
C621        C  0.72349341  0.55127382  0.42996918    -0.27700
C622        C  0.73165232  0.56955765  0.40514443     0.18400
C623        C  0.77832540  0.55468461  0.36105058     0.12300
C624        C  0.76190205  0.51695009  0.41297557    -0.12000
H625        H  0.72775351  0.52069801  0.45098292     0.12600
C626        C  0.72027340  0.58685822  0.39949239    -0.22900
H627        H  0.75640151  0.58475371  0.36443886     0.08300
C628        C  0.76850652  0.54250816  0.33194515     0.04600
C629        C  0.78562519  0.54115896  0.31041262    -0.20100
C630        C  0.81237620  0.55144553  0.31726952    -0.12400
C631        C  0.82221359  0.56356302  0.34664414     0.13300
C632        C  0.80510247  0.56540595  0.36785189    -0.22800
C633        C  0.73980839  0.53035092  0.32388664    -0.05900
H634        H  0.77802894  0.53192310  0.28799754     0.14800
C635        C  0.85003422  0.57340137  0.35738694    -0.16100
H636        H  0.81248087  0.57435253  0.39045622     0.09200
H637        H  0.71189843  0.58335746  0.37559102     0.07000
H638        H  0.73604444  0.60769051  0.40152185     0.08200
H639        H  0.70423853  0.58316029  0.41574575     0.07300
H640        H  0.78353971  0.52787391  0.41626633     0.02100
H641        H  0.75689006  0.50491242  0.39149260     0.02600
H642        H  0.75295667  0.50351469  0.43311581     0.06100
H643        H  0.73531189  0.52117673  0.30041924     0.05100
H644        H  0.73419677  0.54554827  0.32400544    -0.00700
H645        H  0.72769667  0.51498255  0.34120713     0.00800
H646        H  0.86026061  0.59488799  0.36098813     0.04500
H647        H  0.86168495  0.56899431  0.34101578     0.06400
H648        H  0.84966742  0.56393030  0.37986310     0.07300
C649        C  0.55440373  0.10573838  0.33636375    -0.22300
C650        C  0.56574284  0.12466963  0.35981668     0.09600
C651        C  0.59326602  0.14127783  0.36093417     0.10000
C652        C  0.60893862  0.13838672  0.33858515    -0.17300
C653        C  0.59773960  0.11884894  0.31554576    -0.27700
C654        C  0.56998225  0.10256197  0.31417876     0.18400
C655        C  0.54849082  0.12483254  0.38467369     0.12300
C656        C  0.60603756  0.16186228  0.38586518    -0.12000
H657        H  0.63008745  0.15115464  0.33945109     0.12600
C658        C  0.55648010  0.08225063  0.28903701    -0.22900
H659        H  0.53321440  0.09304818  0.33582506     0.08300
C660        C  0.53417403  0.13775186  0.38126320     0.04600
C661        C  0.51709185  0.13592698  0.40521131    -0.20100
C662        C  0.51340655  0.12074429  0.43197014    -0.12400
C663        C  0.52796628  0.10785664  0.43520082     0.13300
C664        C  0.54545651  0.11034284  0.41162398    -0.22800
C665        C  0.53672096  0.15312462  0.35224524    -0.05900
H666        H  0.50597973  0.14574453  0.40260358     0.14800
C667        C  0.52554861  0.09160873  0.46343837    -0.16100
H668        H  0.55650618  0.10042013  0.41384962     0.09200
H669        H  0.53474168  0.07259869  0.29054993     0.07000
H670        H  0.56156129  0.06675191  0.29137418     0.08200
H671        H  0.56254375  0.09158414  0.26572971     0.07300
H672        H  0.60146918  0.15248008  0.40919702     0.02100
H673        H  0.59852219  0.17556300  0.38451207     0.02600
H674        H  0.62775102  0.17335951  0.38324468     0.06100
H675        H  0.52421761  0.16208444  0.35332890     0.05100
H676        H  0.53058521  0.14002855  0.33161693    -0.00700
H677        H  0.55746443  0.16902506  0.34927282     0.00800
H678        H  0.50565271  0.07390405  0.46434203     0.04500
H679        H  0.52925532  0.10330311  0.48497388     0.06400
H680        H  0.53991264  0.08482428  0.46286245     0.07300
C681        C  0.55849765  0.13570381  0.08320928    -0.22300
C682        C  0.54957926  0.12186647  0.11119290     0.09600
C683        C  0.52239979  0.10653142  0.11714156     0.10000
C684        C  0.50457945  0.10534971  0.09472038    -0.17300
C685        C  0.51338716  0.11913696  0.06653765    -0.27700
C686        C  0.54077874  0.13428782  0.06048910     0.18400
C687        C  0.56901127  0.12295228  0.13361500     0.12300
C688        C  0.51227386  0.09119572  0.14696442    -0.12000
H689        H  0.48364462  0.09356878  0.09916444     0.12600
C690        C  0.55225477  0.14813620  0.03001199    -0.22900
H691        H  0.57945707  0.14711697  0.07872835     0.08300
C692        C  0.57888430  0.10590327  0.13101151     0.04600
C693        C  0.59592902  0.10641123  0.15400372    -0.20100
C694        C  0.60307654  0.12332223  0.17966068    -0.12400
C695        C  0.59304983  0.14040841  0.18227214     0.13300
C696        C  0.57650622  0.14030619  0.15877047    -0.22800
C697        C  0.57088739  0.08672482  0.10446377    -0.05900
H698        H  0.60330397  0.09313716  0.15231431     0.14800
C699        C  0.59773385  0.15769478  0.21018089    -0.16100
H700        H  0.56846786  0.15307202  0.16073466     0.09200
H701        H  0.56507977  0.14128934  0.02020285     0.07000
H702        H  0.56433313  0.16953408  0.03415308     0.08200
H703        H  0.53739382  0.14452613  0.01200382     0.07300
H704        H  0.51957412  0.10471539  0.16720626     0.02100
H705        H  0.51920257  0.07705619  0.14903861     0.02600
H706        H  0.49045142  0.08005257  0.14776885     0.06100
H707        H  0.58027051  0.07464838  0.10620921     0.05100
H708        H  0.57683247  0.09742670  0.08196680    -0.00700
H709        H  0.54924286  0.07335442  0.10461913     0.00800
H710        H  0.60832631  0.17849801  0.20275490     0.04500
H711        H  0.60913079  0.15530346  0.22900007     0.06400
H712        H  0.57852947  0.15291562  0.22036946     0.07300
C713        C  0.78777874  0.21354100  0.41561325    -0.22300
C714        C  0.77848193  0.22209197  0.39096001     0.09600
C715        C  0.78619469  0.24873320  0.38871652     0.10000
C716        C  0.80335121  0.26637523  0.41112377    -0.17300
C717        C  0.81281873  0.25794777  0.43583961    -0.27700
C718        C  0.80455009  0.23104482  0.43843727     0.18400
C719        C  0.76022981  0.20276307  0.36800764     0.12300
C720        C  0.77623727  0.25847323  0.36272395    -0.12000
H721        H  0.80939506  0.28689711  0.40940358     0.12600
C722        C  0.81174224  0.21977110  0.46559810    -0.22900
H723        H  0.78139661  0.19294048  0.41743807     0.08300
C724        C  0.76959999  0.19583806  0.34169026     0.04600
C725        C  0.75157246  0.17842691  0.31972325    -0.20100
C726        C  0.72442434  0.16796185  0.32344355    -0.12400
C727        C  0.71502041  0.17408848  0.35060042     0.13300
C728        C  0.73312376  0.19163824  0.37239112    -0.22800
C729        C  0.79862698  0.20734114  0.33648471    -0.05900
H730        H  0.75875600  0.17372995  0.29894473     0.14800
C731        C  0.68616740  0.16207710  0.35781143    -0.16100
H732        H  0.72606058  0.19674903  0.39295945     0.09200
H733        H  0.82314026  0.21086506  0.45709372     0.07000
H734        H  0.79351058  0.20434526  0.47696880     0.08200
H735        H  0.82341972  0.23435764  0.48375379     0.07300
H736        H  0.75447398  0.24855141  0.36380817     0.02100
H737        H  0.78208534  0.25426199  0.33988299     0.02600
H738        H  0.78430862  0.27989692  0.36432309     0.06100
H739        H  0.80264130  0.20004030  0.31458706     0.05100
H740        H  0.80720096  0.20200848  0.35616395    -0.00700
H741        H  0.80849154  0.22897488  0.33496020     0.00800
H742        H  0.68196408  0.15254909  0.38105634     0.04500
H743        H  0.67321271  0.14684259  0.34087876     0.06400
H744        H  0.68097843  0.17758878  0.35826957     0.07300
C745        C  0.73757880  0.19489534  0.13345719    -0.22300
C746        C  0.76458908  0.20665281  0.13918234     0.09600
C747        C  0.77355892  0.20022275  0.16631858     0.10000
C748        C  0.75513766  0.18248798  0.18767543    -0.17300
C749        C  0.72806473  0.17127549  0.18242413    -0.27700
C750        C  0.71912406  0.17704911  0.15461972     0.18400
C751        C  0.78305211  0.22594494  0.11650891     0.12300
C752        C  0.80250302  0.21229619  0.17279830    -0.12000
H753        H  0.76186377  0.17792402  0.20897868     0.12600
C754        C  0.69041080  0.16431575  0.14611903    -0.22900
H755        H  0.73087432  0.19965940  0.11227587     0.08300
C756        C  0.79125297  0.21808803  0.08996914     0.04600
C757        C  0.80790221  0.23703131  0.06841362    -0.20100
C758        C  0.81609443  0.26357336  0.07253463    -0.12400
C759        C  0.80803519  0.27143901  0.09943481     0.13300
C760        C  0.79168332  0.25244440  0.12119940    -0.22800
C761        C  0.78215886  0.18970417  0.08426682    -0.05900
H762        H  0.81391604  0.23097477  0.04773130     0.14800
C763        C  0.81694851  0.29974331  0.10571392    -0.16100
H764        H  0.78525239  0.25818155  0.14179257     0.09200
H765        H  0.68700498  0.15433245  0.12325090     0.07000
H766        H  0.68480055  0.17947355  0.14424162     0.08200
H767        H  0.67721910  0.14938383  0.16318575     0.07300
H768        H  0.81188932  0.23388601  0.17433944     0.02100
H769        H  0.81187457  0.20733165  0.15372758     0.02600
H770        H  0.80614325  0.20511732  0.19506878     0.06100
H771        H  0.79042687  0.18693827  0.06235186     0.05100
H772        H  0.76039384  0.17824162  0.08243673    -0.00700
H773        H  0.78848295  0.18194396  0.10383947     0.00800
H774        H  0.81020180  0.30236274  0.12885328     0.04500
H775        H  0.80875852  0.30718698  0.08790993     0.06400
H776        H  0.83875436  0.31165200  0.10535276     0.07300
C777        C  0.87272730  0.41030869  0.38265058    -0.22300
C778        C  0.85218057  0.41534290  0.38609156     0.09600
C779        C  0.83354053  0.40294760  0.40998776     0.10000
C780        C  0.83650909  0.38646062  0.43086595    -0.17300
C781        C  0.85769544  0.38217905  0.42824167    -0.27700
C782        C  0.87558380  0.39361433  0.40317069     0.18400
C783        C  0.85118473  0.43423279  0.36465722     0.12300
C784        C  0.81102052  0.40770396  0.41389362    -0.12000
H785        H  0.82277832  0.37763152  0.44999676     0.12600
C786        C  0.89738734  0.38815430  0.39671708    -0.22900
H787        H  0.88666768  0.41953385  0.36377090     0.08300
C788        C  0.86822609  0.46135710  0.36864943     0.04600
C789        C  0.86889095  0.47852578  0.34584818    -0.20100
C790        C  0.85278851  0.46920031  0.31936781    -0.12400
C791        C  0.83500330  0.44202731  0.31589676     0.13300
C792        C  0.83440275  0.42485499  0.33877019    -0.22800
C793        C  0.88585446  0.47212824  0.39679602    -0.05900
H794        H  0.88241518  0.49933466  0.34834218     0.14800
C795        C  0.81745873  0.43029395  0.28781169    -0.16100
H796        H  0.82143603  0.40394358  0.33585630     0.09200
H797        H  0.91672565  0.40638962  0.39953981     0.07000
H798        H  0.89565840  0.38103169  0.37240590     0.08200
H799        H  0.89668508  0.37286691  0.41206203     0.07300
H800        H  0.79857028  0.40127039  0.39262538     0.02100
H801        H  0.81873011  0.42887241  0.41773428     0.02600
H802        H  0.79845034  0.39676262  0.43407906     0.06100
H803        H  0.89755449  0.49384526  0.39651195     0.05100
H804        H  0.89975793  0.46480006  0.39743628    -0.00700
H805        H  0.87375551  0.46588099  0.41831513     0.00800
H806        H  0.82199201  0.41635917  0.27619769     0.04500
H807        H  0.81984595  0.44498732  0.27023446     0.06400
H808        H  0.79659478  0.41952904  0.29537408     0.07300
C809        C  0.88317504  0.41448562  0.11612860    -0.22300
C810        C  0.86502825  0.42284548  0.11268083     0.09600
C811        C  0.84736341  0.41369439  0.08734572     0.10000
C812        C  0.84862780  0.39677622  0.06553632    -0.17300
C813        C  0.86709278  0.38867000  0.06853240    -0.27700
C814        C  0.88411679  0.39707558  0.09477219     0.18400
C815        C  0.86440586  0.44070007  0.13632274     0.12300
C816        C  0.82724101  0.42186095  0.08334575    -0.12000
H817        H  0.83544704  0.39025178  0.04565992     0.12600
C818        C  0.90262109  0.38729398  0.10196964    -0.22900
H819        H  0.89630951  0.42114938  0.13606147     0.08300
C820        C  0.84967261  0.43100224  0.16397342     0.04600
C821        C  0.84966922  0.44861728  0.18575750    -0.20100
C822        C  0.86426505  0.47572892  0.18063248    -0.12400
C823        C  0.87849541  0.48539893  0.15243549     0.13300
C824        C  0.87853329  0.46771081  0.13077274    -0.22800
C825        C  0.83416499  0.40207693  0.17056215    -0.05900
H826        H  0.83882143  0.44123261  0.20733755     0.14800
C827        C  0.89311490  0.51401880  0.14386296    -0.16100
H828        H  0.88948289  0.47501578  0.10924009     0.09200
H829        H  0.89887297  0.37920398  0.12599099     0.07000
H830        H  0.92325774  0.40375202  0.10054170     0.08200
H831        H  0.90014373  0.37139102  0.08633281     0.07300
H832        H  0.83727178  0.44344043  0.08083904     0.02100
H833        H  0.81414470  0.41574740  0.10400737     0.02600
H834        H  0.81484062  0.41283322  0.06236084     0.06100
H835        H  0.82368433  0.39777924  0.19320989     0.05100
H836        H  0.84759008  0.39417206  0.17139931    -0.00700
H837        H  0.81933424  0.39189656  0.15192168     0.00800
H838        H  0.91438382  0.52103177  0.14141967     0.04500
H839        H  0.89070955  0.52650071  0.16110210     0.06400
H840        H  0.88561655  0.51665095  0.12122470     0.07300
C841        C  0.63207547  0.97059899  0.39726161    -0.22300
C842        C  0.61851569  0.98174088  0.38369737     0.09600
C843        C  0.59265249  0.97352529  0.39312480     0.10000
C844        C  0.58096296  0.95452849  0.41635765    -0.17300
C845        C  0.59442003  0.94337112  0.43058242    -0.27700
C846        C  0.62036261  0.95139992  0.42060226     0.18400
C847        C  0.63139372  0.00211837  0.35958834     0.12300
C848        C  0.57747272  0.98510079  0.37894388    -0.12000
H849        H  0.56106111  0.94840376  0.42346358     0.12600
C850        C  0.63614656  0.94049900  0.43470940    -0.22900
H851        H  0.65194158  0.97709331  0.38962282     0.08300
C852        C  0.64764207  0.02871826  0.36762161     0.04600
C853        C  0.65553921  0.04783415  0.34429176    -0.20100
C854        C  0.64686145  0.04077093  0.31349642    -0.12400
C855        C  0.63178593  0.01400628  0.30521805     0.13300
C856        C  0.62436173  0.99500665  0.32844352    -0.22800
C857        C  0.65542360  0.03690714  0.40097889    -0.05900
H858        H  0.66716260  0.06837410  0.35040831     0.14800
C859        C  0.62293578  0.00477457  0.27227316    -0.16100
H860        H  0.61195837  0.97449629  0.32246207     0.09200
H861        H  0.63802396  0.94395814  0.46024840     0.07000
H862        H  0.65629975  0.94989680  0.42484383     0.08200
H863        H  0.62645485  0.91922151  0.42983348     0.07300
H864        H  0.57484087  0.98093444  0.35356519     0.02100
H865        H  0.58830601  0.00659655  0.38264658     0.02600
H866        H  0.55766158  0.97684091  0.38949632     0.06100
H867        H  0.66789527  0.05848726  0.40325923     0.05100
H868        H  0.66668897  0.02802126  0.41006273    -0.00700
H869        H  0.63756099  0.03029089  0.41543237     0.00800
H870        H  0.62992580  0.99139129  0.26513742     0.04500
H871        H  0.63068342  0.02091276  0.25506114     0.06400
H872        H  0.60112659  0.99399719  0.27114944     0.07300
C873        C  0.63867228  0.98265029  0.08733587    -0.22300
C874        C  0.62624483  0.98126503  0.11565827     0.09600
C875        C  0.60146561  0.95915607  0.12224317     0.10000
C876        C  0.58915214  0.93945689  0.09973003    -0.17300
C877        C  0.60072003  0.94154472  0.07055425    -0.27700
C878        C  0.62616505  0.96312950  0.06451219     0.18400
C879        C  0.63727592  0.00469660  0.13591586     0.12300
C880        C  0.58741433  0.95696963  0.15238472    -0.12000
H881        H  0.56986652  0.92281642  0.10443304     0.12600
C882        C  0.64003211  0.96722157  0.03373782    -0.22900
H883        H  0.65761023  0.99980226  0.08230428     0.08300
C884        C  0.65318582  0.00797113  0.16203025     0.04600
C885        C  0.65991056  0.02891051  0.18262875    -0.20100
C886        C  0.65112073  0.04658784  0.17740417    -0.12400
C887        C  0.63698996  0.04434777  0.14979421     0.13300
C888        C  0.62998049  0.02325608  0.12966247    -0.22800
C889        C  0.66256465  0.98913239  0.16833355    -0.05900
H890        H  0.67094632  0.03072754  0.20362197     0.14800
C891        C  0.62913697  0.06390771  0.14066536    -0.16100
H892        H  0.61823877  0.02096080  0.10915182     0.09200
H893        H  0.65897559  0.96796897  0.03758236     0.07000
H894        H  0.64411420  0.98606063  0.02338252     0.08200
H895        H  0.62853815  0.95167499  0.01648275     0.07300
H896        H  0.58389658  0.97355395  0.15453185     0.02100
H897        H  0.59949232  0.95733566  0.17240310     0.02600
H898        H  0.56809223  0.93850346  0.15361870     0.06100
H899        H  0.67489855  0.99452810  0.18968224     0.05100
H900        H  0.67450542  0.98919456  0.14835046    -0.00700
H901        H  0.64552789  0.96906252  0.17148382     0.00800
H902        H  0.63666027  0.07148149  0.11693943     0.04500
H903        H  0.63730369  0.08105281  0.15643483     0.06400
H904        H  0.60737099  0.05421829  0.14044450     0.07300
C905        C  0.42629678  0.86924863  0.33603326    -0.22300
C906        C  0.41554156  0.85863591  0.36517927     0.09600
C907        C  0.38844729  0.84812096  0.37046928     0.10000
C908        C  0.37276121  0.84918232  0.34658817    -0.17300
C909        C  0.38371692  0.86087237  0.31778458    -0.27700
C910        C  0.41074062  0.87047365  0.31216480     0.18400
C911        C  0.43347262  0.86018567  0.39023886     0.12300
C912        C  0.37622732  0.83600779  0.40135086    -0.12000
H913        H  0.35201246  0.84156343  0.35073163     0.12600
C914        C  0.42319415  0.88144094  0.28091929    -0.22900
H915        H  0.44711247  0.87702242  0.33218073     0.08300
C916        C  0.44202870  0.84204526  0.39244848     0.04600
C917        C  0.46032462  0.84542142  0.41556133    -0.20100
C918        C  0.47037814  0.86662549  0.43647325    -0.12400
C919        C  0.46121579  0.88450944  0.43449278     0.13300
C920        C  0.44295029  0.88103139  0.41129783    -0.22800
C921        C  0.43175162  0.81912501  0.37048806    -0.05900
H922        H  0.46704456  0.83155251  0.41704598     0.14800
C923        C  0.46986277  0.90686277  0.45710285    -0.16100
H924        H  0.43609090  0.89477881  0.40935841     0.09200
H925        H  0.44397272  0.88625917  0.28018041     0.07000
H926        H  0.42310737  0.89971536  0.27597855     0.08200
H927        H  0.41226154  0.86684993  0.26233584     0.07300
H928        H  0.38540684  0.85079800  0.42016583     0.02100
H929        H  0.37930304  0.81942004  0.40631739     0.02600
H930        H  0.35474767  0.82847798  0.40148991     0.06100
H931        H  0.44023782  0.80660753  0.37562126     0.05100
H932        H  0.43686277  0.82621078  0.34612315    -0.00700
H933        H  0.41005006  0.80691629  0.37265638     0.00800
H934        H  0.49113538  0.92116906  0.45418316     0.04500
H935        H  0.46585914  0.89929487  0.48136515     0.06400
H936        H  0.45921661  0.91754785  0.45323508     0.07300
C937        C  0.40873922  0.87880908  0.13406149    -0.22300
C938        C  0.41941160  0.86306280  0.14092551     0.09600
C939        C  0.41193609  0.84798484  0.16839246     0.10000
C940        C  0.39397433  0.84914152  0.18863343    -0.17300
C941        C  0.38337149  0.86509884  0.18207378    -0.27700
C942        C  0.39045784  0.87974417  0.15400725     0.18400
C943        C  0.43814953  0.86243505  0.11870193     0.12300
C944        C  0.42317139  0.83095936  0.17647929    -0.12000
H945        H  0.38871317  0.83803217  0.21014877     0.12600
C946        C  0.37851928  0.89568393  0.14356495    -0.22900
H947        H  0.41436193  0.89007474  0.11264575     0.08300
C948        C  0.42942685  0.84454681  0.09370269     0.04600
C949        C  0.44787439  0.84526706  0.07255758    -0.20100
C950        C  0.47476346  0.86378833  0.07563682    -0.12400
C951        C  0.48349628  0.88119583  0.10135952     0.13300
C952        C  0.46500994  0.88038310  0.12244277    -0.22800
C953        C  0.40060107  0.82521790  0.08894311    -0.05900
H954        H  0.44115626  0.83209715  0.05275772     0.14800
C955        C  0.51209807  0.90048675  0.10770095    -0.16100
H956        H  0.47157768  0.89387325  0.14194075     0.09200
H957        H  0.37019750  0.88944271  0.11978413     0.07000
H958        H  0.39393293  0.91672319  0.14289396     0.08200
H959        H  0.36221177  0.89319689  0.15858591     0.07300
H960        H  0.44487461  0.84319001  0.17863053     0.02100
H961        H  0.41821273  0.81613269  0.15794490     0.02600
H962        H  0.41526913  0.82049097  0.19888737     0.06100
H963        H  0.39709587  0.81274468  0.06813411     0.05100
H964        H  0.38983037  0.83583082  0.08562843    -0.00700
H965        H  0.39253864  0.81226421  0.10960072     0.00800
H966        H  0.51584984  0.92074464  0.10578255     0.04500
H967        H  0.52538441  0.89822054  0.09160383     0.06400
H968        H  0.51718351  0.89745060  0.13165508     0.07300
C969        C  0.10950540  0.52018966  0.37054622    -0.22300
C970        C  0.12648874  0.54711936  0.36649629     0.09600
C971        C  0.14437907  0.55621009  0.34136439     0.10000
C972        C  0.14413679  0.53808818  0.32009748    -0.17300
C973        C  0.12618976  0.51117981  0.32328568    -0.27700
C974        C  0.10913506  0.50208275  0.34935397     0.18400
C975        C  0.12476880  0.56527777  0.38875569     0.12300
C976        C  0.16292909  0.58502627  0.33631882    -0.12000
H977        H  0.15710010  0.54503583  0.30007189     0.12600
C978        C  0.09051660  0.47345256  0.35578924    -0.22900
H979        H  0.09620292  0.51325723  0.39028138     0.08300
C980        C  0.10342105  0.56962855  0.38811704     0.04600
C981        C  0.10180996  0.58577917  0.41078612    -0.20100
C982        C  0.12103140  0.59768881  0.43411288    -0.12400
C983        C  0.14232519  0.59305073  0.43488306     0.13300
C984        C  0.14404612  0.57720334  0.41188630    -0.22800
C985        C  0.08250075  0.55746924  0.36331234    -0.05900
H986        H  0.08549387  0.58923096  0.41023766     0.14800
C987        C  0.16283127  0.60309813  0.46034488    -0.16100
H988        H  0.16012880  0.57339142  0.41260704     0.09200
H989        H  0.06991258  0.46909943  0.35448577     0.07000
H990        H  0.09422413  0.46860665  0.37954897     0.08200
H991        H  0.09293191  0.46049328  0.33934096     0.07300
H992        H  0.17635380  0.59347773  0.35659986     0.02100
H993        H  0.15155183  0.59507668  0.33352856     0.02600
H994        H  0.17512443  0.58882299  0.31512559     0.06100
H995        H  0.06760927  0.56346919  0.36573107     0.05100
H996        H  0.07215213  0.53582865  0.36498356    -0.00700
H997        H  0.09165184  0.56366070  0.33992900     0.00800
H998        H  0.16351023  0.58641450  0.47100813     0.04500
H999        H  0.15890689  0.61303733  0.47953719     0.06400
H1000       H  0.18240346  0.61687891  0.45023942     0.07300
C1001       C  0.10679561  0.51993409  0.13248210    -0.22300
C1002       C  0.12361451  0.54687489  0.13655166     0.09600
C1003       C  0.14071597  0.55622553  0.16242780     0.10000
C1004       C  0.13989596  0.53831767  0.18442124    -0.17300
C1005       C  0.12232180  0.51133359  0.18102269    -0.27700
C1006       C  0.10619141  0.50195955  0.15411286     0.18400
C1007       C  0.12246789  0.56489467  0.11369579     0.12300
C1008       C  0.15962129  0.58506046  0.16685506    -0.12000
H1009       H  0.15243323  0.54545876  0.20484980     0.12600
C1010       C  0.08873132  0.47325256  0.14685671    -0.22900
H1011       H  0.09408986  0.51288335  0.11217508     0.08300
C1012       C  0.13571446  0.57035919  0.08493190     0.04600
C1013       C  0.13328322  0.58692548  0.06366324    -0.20100
C1014       C  0.11772361  0.59794012  0.07043119    -0.12400
C1015       C  0.10495557  0.59293087  0.09966088     0.13300
C1016       C  0.10732304  0.57622308  0.12079563    -0.22800
C1017       C  0.15227797  0.55862288  0.07668228    -0.05900
H1018       H  0.14309990  0.59083185  0.04129520     0.14800
C1019       C  0.08949330  0.60543904  0.10988121    -0.16100
H1020       H  0.09739961  0.57209853  0.14311276     0.09200
H1021       H  0.09371958  0.46914835  0.12340850     0.07000
H1022       H  0.06784096  0.46806170  0.14681928     0.08200
H1023       H  0.09106849  0.46030462  0.16345095     0.07300
H1024       H  0.14860134  0.59551624  0.16896089     0.02100
H1025       H  0.17306478  0.59291788  0.14653863     0.02600
H1026       H  0.17173578  0.58904927  0.18820752     0.06100
H1027       H  0.16145057  0.56510133  0.05333514     0.05100
H1028       H  0.13990725  0.53696090  0.07643463    -0.00700
H1029       H  0.16821660  0.56463619  0.09415335     0.00800
H1030       H  0.06863031  0.59007553  0.11358529     0.04500
H1031       H  0.09021857  0.61989319  0.09301472     0.06400
H1032       H  0.09767929  0.61600861  0.13217892     0.07300
C1033       C  0.00020755  0.35255777  0.33445615    -0.22300
C1034       C  0.00357074  0.36390827  0.36399578     0.09600
C1035       C  0.02783213  0.38626660  0.37184528     0.10000
C1036       C  0.04776591  0.39751521  0.34937284    -0.17300
C1037       C  0.04391471  0.38707374  0.31923741    -0.27700
C1038       C  0.02001291  0.36397341  0.31179853     0.18400
C1039       C  0.98058620  0.35405400  0.38499427     0.12300
C1040       C  0.03224653  0.39897949  0.40339189    -0.12000
H1041       H  0.06611021  0.41514747  0.35495682     0.12600
C1042       C  0.01403543  0.35170376  0.27982966    -0.22900
H1043       H  0.98148955  0.33543791  0.32853156     0.08300
C1044       C  0.96133662  0.36100065  0.38003241     0.04600
C1045       C  0.94104618  0.35330317  0.40171739    -0.20100
C1046       C  0.93973532  0.33929663  0.42867191    -0.12400
C1047       C  0.95877856  0.33185714  0.43335003     0.13300
C1048       C  0.97887677  0.33917235  0.41121258    -0.22800
C1049       C  0.96281801  0.37755571  0.35258107    -0.05900
H1050       H  0.92655983  0.35901902  0.39809659     0.14800
C1051       C  0.95901516  0.31765387  0.46236859    -0.16100
H1052       H  0.99388060  0.33410094  0.41487894     0.09200
H1053       H  0.99652860  0.35151295  0.27008070     0.07000
H1054       H  0.00971458  0.33124391  0.28164549     0.08200
H1055       H  0.03037870  0.36216524  0.26308886     0.07300
H1056       H  0.03025292  0.38496481  0.42181783     0.02100
H1057       H  0.01756449  0.40504119  0.40740595     0.02600
H1058       H  0.05216737  0.41661535  0.40539498     0.06100
H1059       H  0.94654548  0.38176877  0.35274386     0.05100
H1060       H  0.96152535  0.36723522  0.33051728    -0.00700
H1061       H  0.98168880  0.39651290  0.35320402     0.00800
H1062       H  0.97599994  0.31452510  0.46272705     0.04500
H1063       H  0.94080966  0.29816998  0.46353251     0.06400
H1064       H  0.96040312  0.32924471  0.48334041     0.07300
C1065       C  0.97453030  0.33744170  0.09569855    -0.22300
C1066       C  0.98560192  0.36230875  0.10915673     0.09600
C1067       C  0.97728688  0.37957231  0.09948157     0.10000
C1068       C  0.95701665  0.37104111  0.07764196    -0.17300
C1069       C  0.94540475  0.34597089  0.06414447    -0.27700
C1070       C  0.95500747  0.32921274  0.07259791     0.18400
C1071       C  0.00529988  0.36988805  0.13417383     0.12300
C1072       C  0.98997448  0.40711399  0.11198614    -0.12000
H1073       H  0.95024577  0.38423139  0.07100767     0.12600
C1074       C  0.94650972  0.30331073  0.05710827    -0.22900
H1075       H  0.98153289  0.32454887  0.10289655     0.08300
C1076       C  0.99782671  0.36797501  0.16567157     0.04600
C1077       C  0.01731664  0.37864893  0.18865266    -0.20100
C1078       C  0.04402538  0.39095595  0.18083589    -0.12400
C1079       C  0.05153672  0.39202119  0.14932188     0.13300
C1080       C  0.03192621  0.38129162  0.12630014    -0.22800
C1081       C  0.96930603  0.35508829  0.17493366    -0.05900
H1082       H  0.01173568  0.37794872  0.21285662     0.14800
C1083       C  0.07983954  0.40543069  0.13894447    -0.16100
H1084       H  0.03746675  0.38280119  0.10197127     0.09200
H1085       H  0.93613867  0.28725769  0.07427852     0.07000
H1086       H  0.96415276  0.30311957  0.04863737     0.08200
H1087       H  0.93376060  0.29929521  0.03654614     0.07300
H1088       H  0.01128379  0.41780978  0.10642131     0.02100
H1089       H  0.98748994  0.40684224  0.13762197     0.02600
H1090       H  0.98123029  0.41809130  0.10160348     0.06100
H1091       H  0.96695699  0.35512431  0.20060932     0.05100
H1092       H  0.95866940  0.33446727  0.16682401    -0.00700
H1093       H  0.96012102  0.36553442  0.16431145     0.00800
H1094       H  0.08361919  0.39103275  0.12719126     0.04500
H1095       H  0.09406829  0.41440784  0.15834369     0.06400
H1096       H  0.08371134  0.42121686  0.12214725     0.07300
C1097       C  0.32307098  0.35215059  0.39063444    -0.22300
C1098       C  0.34918450  0.35928160  0.38474708     0.09600
C1099       C  0.36965136  0.37977438  0.40182098     0.10000
C1100       C  0.36357133  0.39253006  0.42477391    -0.17300
C1101       C  0.33742859  0.38575135  0.43099317    -0.27700
C1102       C  0.31682858  0.36509427  0.41354935     0.18400
C1103       C  0.35535642  0.34669876  0.35906872     0.12300
C1104       C  0.39808229  0.38866738  0.39531001    -0.12000
H1105       H  0.37960288  0.40811919  0.43778654     0.12600
C1106       C  0.28835666  0.35680750  0.41817618    -0.22900
H1107       H  0.30757323  0.33659728  0.37694192     0.08300
C1108       C  0.36118188  0.32678986  0.36469014     0.04600
C1109       C  0.37255300  0.31961856  0.34083801    -0.20100
C1110       C  0.37823464  0.33208051  0.31170081    -0.12400
C1111       C  0.37007298  0.35030218  0.30534106     0.13300
C1112       C  0.35897388  0.35754342  0.32925809    -0.22800
C1113       C  0.35613453  0.31375874  0.39609181    -0.05900
H1114       H  0.37834942  0.30533638  0.34549925     0.14800
C1115       C  0.37274247  0.36256183  0.27372374    -0.16100
H1116       H  0.35403597  0.37252023  0.32495918     0.09200
H1117       H  0.28204752  0.34900147  0.44209677     0.07000
H1118       H  0.27529615  0.34113480  0.40162005     0.08200
H1119       H  0.28556635  0.37371209  0.41427800     0.07300
H1120       H  0.40287221  0.39529372  0.37074297     0.02100
H1121       H  0.40175184  0.37235370  0.39929410     0.02600
H1122       H  0.41165041  0.40518010  0.41059207     0.06100
H1123       H  0.36182297  0.29860594  0.39654965     0.05100
H1124       H  0.33487995  0.30419529  0.40168307    -0.00700
H1125       H  0.36756258  0.32842753  0.41438243     0.00800
H1126       H  0.35326409  0.35907672  0.26606385     0.04500
H1127       H  0.37964761  0.35432865  0.25544458     0.06400
H1128       H  0.38663058  0.38398160  0.27521607     0.07300
C1129       C  0.35946880  0.38638420  0.11691799    -0.22300
C1130       C  0.35005156  0.35972477  0.11205444     0.09600
C1131       C  0.33260012  0.34657041  0.08723018     0.10000
C1132       C  0.32600220  0.36078711  0.06671275    -0.17300
C1133       C  0.33665684  0.38783681  0.07053006    -0.27700
C1134       C  0.35286926  0.40061578  0.09659470     0.18400
C1135       C  0.36024941  0.34667007  0.13223912     0.12300
C1136       C  0.32174011  0.31781697  0.08187699    -0.12000
H1137       H  0.31351574  0.35102363  0.04677950     0.12600
C1138       C  0.36334351  0.42909505  0.10387262    -0.22900
H1139       H  0.37251930  0.39627577  0.13640178     0.08300
C1140       C  0.38548073  0.35036424  0.12718534     0.04600
C1141       C  0.39612665  0.34089814  0.14917379    -0.20100
C1142       C  0.38228336  0.32807753  0.17628720    -0.12400
C1143       C  0.35640407  0.32324810  0.18059724     0.13300
C1144       C  0.34564946  0.33246044  0.15825853    -0.22800
C1145       C  0.40153205  0.36509433  0.09912045    -0.05900
H1146       H  0.41600052  0.34477076  0.14605151     0.14800
C1147       C  0.34020732  0.31019202  0.20924074    -0.16100
H1148       H  0.32627457  0.32974285  0.16199317     0.09200
H1149       H  0.38513431  0.44004341  0.10248118     0.07000
H1150       H  0.35743935  0.43091187  0.12786839     0.08200
H1151       H  0.35570331  0.43840668  0.08799701     0.07300
H1152       H  0.31022347  0.30658375  0.10253672     0.02100
H1153       H  0.33811207  0.31408274  0.07807483     0.02600
H1154       H  0.30861575  0.31059897  0.06118208     0.06100
H1155       H  0.42072960  0.36593544  0.09856502     0.05100
H1156       H  0.40551950  0.38547699  0.09950501    -0.00700
H1157       H  0.39060523  0.35527324  0.07750485     0.00800
H1158       H  0.33528956  0.32375810  0.22107924     0.04500
H1159       H  0.35027935  0.30442662  0.22642845     0.06400
H1160       H  0.32164179  0.29232969  0.20226289     0.07300
C1161       C  0.22160609  0.43897701  0.41263684    -0.22300
C1162       C  0.21872752  0.42469658  0.38551732     0.09600
C1163       C  0.23319769  0.41193491  0.38200110     0.10000
C1164       C  0.25095111  0.41450709  0.40548759    -0.17300
C1165       C  0.25444693  0.42954544  0.43226261    -0.27700
C1166       C  0.23875515  0.44105343  0.43642941     0.18400
C1167       C  0.20160868  0.42495188  0.36054199     0.12300
C1168       C  0.22986027  0.39564460  0.35358753    -0.12000
H1169       H  0.26257734  0.40525599  0.40263350     0.12600
C1170       C  0.23866492  0.45479115  0.46597234    -0.22900
H1171       H  0.21022718  0.44852129  0.41531952     0.08300
C1172       C  0.17399307  0.41152611  0.36353288     0.04600
C1173       C  0.15897526  0.41487554  0.34064124    -0.20100
C1174       C  0.17101859  0.43164233  0.31514758    -0.12400
C1175       C  0.19869297  0.44436316  0.31171465     0.13300
C1176       C  0.21358352  0.44087652  0.33456047    -0.22800
C1177       C  0.16042235  0.39367622  0.39078791    -0.05900
H1178       H  0.13777531  0.40481492  0.34301819     0.14800
C1179       C  0.21270520  0.46113941  0.28376809    -0.16100
H1180       H  0.23482199  0.45110431  0.33254829     0.09200
H1181       H  0.21821788  0.44574985  0.47483115     0.07000
H1182       H  0.24613018  0.47575857  0.46096628     0.08200
H1183       H  0.25047401  0.45334081  0.48504847     0.07300
H1184       H  0.23564904  0.40802511  0.33236256     0.02100
H1185       H  0.20899036  0.37979716  0.35145123     0.02600
H1186       H  0.24218924  0.38650168  0.35494543     0.06100
H1187       H  0.13870491  0.38416945  0.38905575     0.05100
H1188       H  0.16668912  0.40494282  0.41287748    -0.00700
H1189       H  0.16550584  0.37809398  0.39155845     0.00800
H1190       H  0.21100683  0.47888495  0.28364732     0.04500
H1191       H  0.20413455  0.44979532  0.26200792     0.06400
H1192       H  0.23399833  0.46780264  0.28398068     0.07300
C1193       C  0.24748999  0.45135175  0.11401174    -0.22300
C1194       C  0.22078396  0.43288942  0.11000901     0.09600
C1195       C  0.21274083  0.41486809  0.08519996     0.10000
C1196       C  0.23172374  0.41585437  0.06469978    -0.17300
C1197       C  0.25854001  0.43456815  0.06839068    -0.27700
C1198       C  0.26656117  0.45221451  0.09385811     0.18400
C1199       C  0.20181541  0.43232356  0.13292270     0.12300
C1200       C  0.18413777  0.39487931  0.08020475    -0.12000
H1201       H  0.22550927  0.40245617  0.04513287     0.12600
C1202       C  0.29498220  0.47153318  0.10133720    -0.22900
H1203       H  0.25354720  0.46485999  0.13346890     0.08300
C1204       C  0.19642520  0.41801009  0.16089160     0.04600
C1205       C  0.17962245  0.41930881  0.18292709    -0.20100
C1206       C  0.16833741  0.43482147  0.17770928    -0.12400
C1207       C  0.17300938  0.44842344  0.14912802     0.13300
C1208       C  0.18993457  0.44717625  0.12719510    -0.22800
C1209       C  0.20884659  0.40181166  0.16766794    -0.05900
H1210       H  0.17598381  0.40887877  0.20481010     0.14800
C1211       C  0.16003832  0.46385151  0.14064847    -0.16100
H1212       H  0.19395254  0.45791005  0.10548907     0.09200
H1213       H  0.29908250  0.46891568  0.12592837     0.07000
H1214       H  0.29889716  0.49177415  0.09834594     0.08200
H1215       H  0.30897953  0.46898157  0.08683859     0.07300
H1216       H  0.17288721  0.40493121  0.07627036     0.02100
H1217       H  0.17617138  0.38210202  0.10102273     0.02600
H1218       H  0.18119759  0.38228542  0.05967904     0.06100
H1219       H  0.20259075  0.39187985  0.19063034     0.05100
H1220       H  0.23058010  0.41452630  0.16791456    -0.00700
H1221       H  0.20309819  0.38658661  0.14944626     0.00800
H1222       H  0.17525615  0.48480297  0.13780751     0.04500
H1223       H  0.14555445  0.46228335  0.15815655     0.06400
H1224       H  0.14927142  0.45642478  0.11827985     0.07300
C1225       C  0.64050564  0.63413193  0.41582843    -0.22300
C1226       C  0.62866840  0.62097033  0.38800023     0.09600
C1227       C  0.62530198  0.59600986  0.38246820     0.10000
C1228       C  0.63268011  0.58423967  0.40554148    -0.17300
C1229       C  0.64358752  0.59693532  0.43385629    -0.27700
C1230       C  0.64796949  0.62239227  0.43894134     0.18400
C1231       C  0.61739301  0.63219579  0.36631823     0.12300
C1232       C  0.61310591  0.58141918  0.35264643    -0.12000
H1233       H  0.62934583  0.56472692  0.40180144     0.12600
C1234       C  0.65928250  0.63719540  0.46889988    -0.22900
H1235       H  0.64300964  0.65326719  0.42002721     0.08300
C1236       C  0.59250188  0.62919961  0.37208211     0.04600
C1237       C  0.58064672  0.63662583  0.34911958    -0.20100
C1238       C  0.59319461  0.64726496  0.32063327    -0.12400
C1239       C  0.61863281  0.65116855  0.31529558     0.13300
C1240       C  0.63043761  0.64370193  0.33836738    -0.22800
C1241       C  0.57809535  0.61740942  0.40210980    -0.05900
H1242       H  0.56119579  0.63362342  0.35314187     0.14800
C1243       C  0.63334332  0.66165015  0.28506346    -0.16100
H1244       H  0.64950548  0.64585929  0.33399051     0.09200
H1245       H  0.64489174  0.64146169  0.47991402     0.07000
H1246       H  0.67758137  0.65596792  0.46379764     0.08200
H1247       H  0.66409806  0.62628779  0.48602008     0.07300
H1248       H  0.62536600  0.59283399  0.33250712     0.02100
H1249       H  0.59304871  0.57834978  0.34993923     0.02600
H1250       H  0.61151635  0.56197106  0.35234032     0.06100
H1251       H  0.55868043  0.61609875  0.40265137     0.05100
H1252       H  0.58987230  0.62968872  0.42207628    -0.00700
H1253       H  0.57478319  0.59737335  0.40491898     0.00800
H1254       H  0.65216056  0.68007371  0.28965082     0.04500
H1255       H  0.62231368  0.66570103  0.26728808     0.06400
H1256       H  0.63774771  0.64713188  0.27487430     0.07300
C1257       C  0.65557317  0.62707671  0.11353425    -0.22300
C1258       C  0.63004572  0.62297639  0.11481730     0.09600
C1259       C  0.61065435  0.60489856  0.09432444     0.10000
C1260       C  0.61725069  0.59142341  0.07294421    -0.17300
C1261       C  0.64266454  0.59492072  0.07176462    -0.27700
C1262       C  0.66206842  0.61286576  0.09282732     0.18400
C1263       C  0.62279905  0.63509301  0.14011487     0.12300
C1264       C  0.58272067  0.59922378  0.09554660    -0.12000
H1265       H  0.60222877  0.57792168  0.05696378     0.12600
C1266       C  0.68918628  0.61661153  0.09583824    -0.22900
H1267       H  0.67021220  0.64057139  0.12989453     0.08300
C1268       C  0.61775498  0.62441397  0.17039152     0.04600
C1269       C  0.60598568  0.63268596  0.19222775    -0.20100
C1270       C  0.59870895  0.65111183  0.18454659    -0.12400
C1271       C  0.60500819  0.66288568  0.15460105     0.13300
C1272       C  0.61727014  0.65483912  0.13288039    -0.22800
C1273       C  0.62355023  0.60330710  0.17925366    -0.05900
H1274       H  0.60149775  0.62393600  0.21526321     0.14800
C1275       C  0.59772884  0.68253492  0.14377437    -0.16100
H1276       H  0.62112141  0.66289753  0.10949708     0.09200
H1277       H  0.69287686  0.61396569  0.12059080     0.07000
H1278       H  0.70407716  0.63674350  0.08847567     0.08200
H1279       H  0.69197222  0.60240450  0.08232045     0.07300
H1280       H  0.58222649  0.61723444  0.09017382     0.02100
H1281       H  0.57442731  0.59213355  0.11914317     0.02600
H1282       H  0.56989262  0.58399465  0.07841627     0.06100
H1283       H  0.61778794  0.59670756  0.20369636     0.05100
H1284       H  0.64492409  0.61081525  0.17701549    -0.00700
H1285       H  0.61251674  0.58609332  0.16376205     0.00800
H1286       H  0.61587203  0.70119076  0.13781275     0.04500
H1287       H  0.58663484  0.68675864  0.16117102     0.06400
H1288       H  0.58521093  0.67498448  0.12261168     0.07300
C1289       C  0.44808382  0.59577105  0.12989830    -0.22300
C1290       C  0.43532051  0.56864273  0.13424891     0.09600
C1291       C  0.44102851  0.55834921  0.16071433     0.10000
C1292       C  0.45972212  0.57548811  0.18217455    -0.17300
C1293       C  0.47261444  0.60267756  0.17797565    -0.27700
C1294       C  0.46676454  0.61303065  0.15145512     0.18400
C1295       C  0.41792409  0.55112891  0.10948224     0.12300
C1296       C  0.42746495  0.52926771  0.16619577    -0.12000
H1297       H  0.46414358  0.56761293  0.20256047     0.12600
C1298       C  0.48052897  0.64189114  0.14435341    -0.22900
H1299       H  0.44389198  0.60347652  0.10917516     0.08300
C1300       C  0.39062627  0.54131320  0.10939737     0.04600
C1301       C  0.37484766  0.52278549  0.08678821    -0.20100
C1302       C  0.38590985  0.51399275  0.06437092    -0.12400
C1303       C  0.41357181  0.52495783  0.06375149     0.13300
C1304       C  0.42913789  0.54327317  0.08646103    -0.22800
C1305       C  0.37829141  0.55037059  0.13318259    -0.05900
H1306       H  0.35379111  0.51485559  0.08690964     0.14800
C1307       C  0.42705512  0.51820851  0.03872957    -0.16100
H1308       H  0.45022845  0.55131151  0.08659423     0.09200
H1309       H  0.46597743  0.64843060  0.14404167     0.07000
H1310       H  0.48998518  0.64561641  0.12108642     0.08200
H1311       H  0.49612976  0.65399638  0.16136480     0.07300
H1312       H  0.43173978  0.51974748  0.14668334     0.02100
H1313       H  0.40590625  0.52096261  0.16774879     0.02600
H1314       H  0.43411649  0.52456777  0.18819371     0.06100
H1315       H  0.35669733  0.54079108  0.12982187     0.05100
H1316       H  0.38690768  0.57184705  0.13113302    -0.00700
H1317       H  0.38201266  0.54569811  0.15701035     0.00800
H1318       H  0.42130918  0.52170637  0.01537041     0.04500
H1319       H  0.42171510  0.49746967  0.04085448     0.06400
H1320       H  0.44880044  0.53034681  0.04055373     0.07300
C1321       C  0.42767513  0.56003987  0.32640099    -0.22300
C1322       C  0.43044282  0.56766659  0.35768811     0.09600
C1323       C  0.45053277  0.59298564  0.36647151     0.10000
C1324       C  0.46795786  0.60994989  0.34373042    -0.17300
C1325       C  0.46590208  0.60187120  0.31264676    -0.27700
C1326       C  0.44508679  0.57686681  0.30367449     0.18400
C1327       C  0.41360327  0.54799959  0.38118887     0.12300
C1328       C  0.45389556  0.60179432  0.39992086    -0.12000
H1329       H  0.48386053  0.62917118  0.35042087     0.12600
C1330       C  0.44052654  0.56737284  0.27038583    -0.22900
H1331       H  0.41211763  0.54061227  0.31978203     0.08300
C1332       C  0.38832481  0.54313964  0.38856162     0.04600
C1333       C  0.37354664  0.52450027  0.41151038    -0.20100
C1334       C  0.38327497  0.51021193  0.42707362    -0.12400
C1335       C  0.40857010  0.51473023  0.41856293     0.13300
C1336       C  0.42327973  0.53364050  0.39590794    -0.22800
C1337       C  0.37704609  0.55768652  0.37224073    -0.05900
H1338       H  0.35425455  0.52118691  0.41729301     0.14800
C1339       C  0.42067840  0.50012473  0.43295049    -0.16100
H1340       H  0.44264809  0.53738834  0.38955698     0.09200
H1341       H  0.42034408  0.56198330  0.26312303     0.07000
H1342       H  0.44254576  0.54984487  0.26850925     0.08200
H1343       H  0.45434594  0.58232007  0.25377373     0.07300
H1344       H  0.45794623  0.58889204  0.41468004     0.02100
H1345       H  0.43567065  0.60087907  0.40820785     0.02600
H1346       H  0.47047245  0.62219886  0.40276322     0.06100
H1347       H  0.35701977  0.55163186  0.38080497     0.05100
H1348       H  0.37574830  0.55372668  0.34681628    -0.00700
H1349       H  0.38987542  0.57902380  0.37627832     0.00800
H1350       H  0.40808196  0.47885581  0.42824912     0.04500
H1351       H  0.42322048  0.50382775  0.45842793     0.06400
H1352       H  0.44040379  0.50642161  0.42313614     0.07300
C1353       C  0.56541243  0.77340588  0.16312370    -0.22300
C1354       C  0.55411131  0.76392151  0.13381538     0.09600
C1355       C  0.54172143  0.73690245  0.12743037     0.10000
C1356       C  0.54055021  0.71985374  0.15084291    -0.17300
C1357       C  0.55129133  0.72921849  0.18049751    -0.27700
C1358       C  0.56378834  0.75637706  0.18680656     0.18400
C1359       C  0.55353358  0.78233260  0.11106588     0.12300
C1360       C  0.52917855  0.72604543  0.09622090    -0.12000
H1361       H  0.53091097  0.69906023  0.14613056     0.12600
C1362       C  0.57418381  0.76803468  0.21855568    -0.22900
H1363       H  0.57456103  0.79415793  0.16796440     0.08300
C1364       C  0.53420379  0.78945983  0.11290141     0.04600
C1365       C  0.53351477  0.80602903  0.09016279    -0.20100
C1366       C  0.55174177  0.81573127  0.06560807    -0.12400
C1367       C  0.57122881  0.80854633  0.06385013     0.13300
C1368       C  0.57200552  0.79217305  0.08692223    -0.22800
C1369       C  0.51410755  0.77931040  0.13867393    -0.05900
H1370       H  0.51860226  0.81145675  0.09155119     0.14800
C1371       C  0.59065359  0.81640323  0.03744989    -0.16100
H1372       H  0.58667881  0.78641666  0.08559609     0.09200
H1373       H  0.56446834  0.77884027  0.22643132     0.07000
H1374       H  0.59568969  0.78192921  0.21710291     0.08200
H1375       H  0.57053270  0.75333657  0.23671454     0.07300
H1376       H  0.54425650  0.73470502  0.07759680     0.02100
H1377       H  0.51361030  0.73082067  0.09161930     0.02600
H1378       H  0.52004893  0.70444390  0.09527124     0.06100
H1379       H  0.50017600  0.78654280  0.13641959     0.05100
H1380       H  0.52412343  0.78584795  0.16158656    -0.00700
H1381       H  0.50259807  0.75760303  0.13804979     0.00800
H1382       H  0.61090872  0.82895713  0.04659851     0.04500
H1383       H  0.58736548  0.82691395  0.01836655     0.06400
H1384       H  0.58910696  0.79859841  0.02692964     0.07300
C1385       C  0.56330719  0.81025915  0.37976087    -0.22300
C1386       C  0.54749809  0.78306820  0.38333000     0.09600
C1387       C  0.53028528  0.77281736  0.40898074     0.10000
C1388       C  0.52957274  0.78998751  0.43075968    -0.17300
C1389       C  0.54556322  0.81723537  0.42758658    -0.27700
C1390       C  0.56232031  0.82755726  0.40130151     0.18400
C1391       C  0.54843555  0.76550561  0.35949906     0.12300
C1392       C  0.51240387  0.74374798  0.41322597    -0.12000
H1393       H  0.51670017  0.78202359  0.45078563     0.12600
C1394       C  0.57850484  0.85643002  0.39433444    -0.22900
H1395       H  0.57617064  0.81803369  0.35969332     0.08300
C1396       C  0.53604746  0.76184069  0.33030387     0.04600
C1397       C  0.53588852  0.74370197  0.30931717    -0.20100
C1398       C  0.54728086  0.72864454  0.31702435    -0.12400
C1399       C  0.55917861  0.73191447  0.34666242     0.13300
C1400       C  0.56017323  0.75081895  0.36715177    -0.22800
C1401       C  0.52234406  0.77649197  0.32162476    -0.05900
H1402       H  0.52665528  0.74115323  0.28670637     0.14800
C1403       C  0.56951977  0.71492700  0.35842480    -0.16100
H1404       H  0.56922416  0.75337153  0.38988080     0.09200
H1405       H  0.57353675  0.86019741  0.37065913     0.07000
H1406       H  0.59971865  0.86282648  0.39498147     0.08200
H1407       H  0.57491213  0.86865614  0.41068838     0.07300
H1408       H  0.52422489  0.73420846  0.41625669     0.02100
H1409       H  0.49949426  0.73535475  0.39249438     0.02600
H1410       H  0.49967243  0.73914002  0.43407697     0.06100
H1411       H  0.51307576  0.77075475  0.29820906     0.05100
H1412       H  0.53667426  0.79783222  0.32127089    -0.00700
H1413       H  0.50668536  0.77226840  0.33887525     0.00800
H1414       H  0.59101019  0.72713146  0.36256261     0.04500
H1415       H  0.56576264  0.69880085  0.34241015     0.06400
H1416       H  0.55971022  0.70571268  0.38078779     0.07300
Fe1417     Fe  0.53274394  0.62518127  0.74948598     1.65800
Fe1418     Fe  0.50850328  0.66621986  0.74718349     1.73200
Fe1419     Fe  0.57505035  0.69132373  0.75143752     1.54400
O1420       O  0.58768939  0.67406206  0.78391600    -0.81500
O1421       O  0.52440029  0.69182829  0.71048241    -0.79900
O1422       O  0.55622811  0.63210772  0.78799833    -0.84100
O1423       O  0.56378404  0.63462136  0.72002972    -0.78900
O1424       O  0.56608347  0.70826628  0.78776546    -0.80700
O1425       O  0.48812625  0.63669745  0.71506610    -0.83400
C1426       C  0.58251487  0.65502231  0.70765959     0.97300
C1427       C  0.57815856  0.65153231  0.79614865     1.04800
O1428       O  0.53879116  0.66092925  0.74943841    -1.12400
O1429       O  0.48925572  0.64099933  0.78371422    -0.74800
O1430       O  0.50049857  0.61061082  0.77859923    -0.78300
O1431       O  0.58810618  0.67793056  0.71521010    -0.79000
C1432       C  0.48653080  0.61897740  0.79048474     0.96200
O1433       O  0.50872813  0.61421780  0.71096944    -0.77000
O1434       O  0.52436091  0.69657315  0.77878499    -0.82200
C1435       C  0.54763184  0.71007953  0.70472481     0.98900
C1436       C  0.54585754  0.70982486  0.79344726     1.04800
O1437       O  0.56765569  0.71276606  0.71912028    -0.77800
C1438       C  0.49120067  0.61917108  0.70241177     1.03100
Fe1439     Fe  0.36131401  0.44899884  0.49922111     1.65800
Fe1440     Fe  0.32012063  0.47333159  0.99756350     1.73200
Fe1441     Fe  0.29475355  0.40668905  0.99990144     1.54400
O1442       O  0.31047732  0.39303132  0.96673655    -0.81500
O1443       O  0.29345038  0.45913699  0.53352890    -0.79900
O1444       O  0.35322191  0.42201835  0.96488049    -0.84100
O1445       O  0.35331668  0.42174322  0.53355582    -0.78900
O1446       O  0.27530289  0.41326977  0.96441653    -0.80700
O1447       O  0.34929365  0.49502940  0.52999085    -0.83400
C1448       C  0.33296904  0.40252767  0.54530085     0.97300
C1449       C  0.33321189  0.40110703  0.95550651     1.04800
O1450       O  0.32532578  0.44297416  0.99892725    -1.12400
O1451       O  0.34622084  0.49123491  0.96117421    -0.74800
O1452       O  0.37441915  0.47726683  0.96502139    -0.78300
O1453       O  0.30991107  0.39504157  0.53570598    -0.79000
C1454       C  0.36697336  0.49170002  0.95245036     0.96200
O1455       O  0.37393785  0.47675961  0.53352247    -0.77000
O1456       O  0.29014747  0.45609682  0.96530906    -0.82200
C1457       C  0.27701781  0.43657078  0.54382365     0.98900
C1458       C  0.27459892  0.43317878  0.95524801     1.04800
O1459       O  0.27506011  0.41569581  0.53310131    -0.77800
C1460       C  0.36855905  0.49400234  0.54140322     1.03100
Fe1461     Fe  0.08322553  0.45075256  0.75256625     1.65800
Fe1462     Fe  0.14935621  0.47492971  0.74973627     1.73200
Fe1463     Fe  0.10629617  0.40842103  0.74892587     1.54400
O1464       O  0.07640962  0.39418220  0.78184807    -0.81500
O1465       O  0.15976492  0.46037011  0.71237066    -0.79900
O1466       O  0.06542526  0.42462728  0.78830318    -0.84100
O1467       O  0.06163630  0.42264429  0.71987741    -0.78900
O1468       O  0.13254274  0.41513150  0.78442030    -0.80700
O1469       O  0.14102468  0.49595696  0.71798255    -0.83400
C1470       C  0.06309181  0.40468153  0.70586639     0.97300
C1471       C  0.06324492  0.40288452  0.79514732     1.04800
O1472       O  0.11299384  0.44468835  0.75050552    -1.12400
O1473       O  0.14339345  0.49342009  0.78714480    -0.74800
O1474       O  0.10060651  0.47960476  0.78574002    -0.78300
O1475       O  0.07964369  0.39793777  0.71285232    -0.79000
C1476       C  0.12333566  0.49359443  0.79732709     0.96200
O1477       O  0.09745676  0.47742604  0.71672094    -0.77000
O1478       O  0.16257481  0.45760047  0.78074929    -0.82200
C1479       C  0.15326286  0.43755118  0.70328165     0.98900
C1480       C  0.15433729  0.43500118  0.79212492     1.04800
O1481       O  0.13493601  0.41697047  0.71579740    -0.77800
C1482       C  0.12017059  0.49377092  0.70664823     1.03100
Fe1483     Fe  0.53532634  0.90516984  0.50434664     1.65800
Fe1484     Fe  0.50902687  0.83900111  0.00154574     1.73200
Fe1485     Fe  0.57611711  0.88017093  0.99835253     1.54400
O1486       O  0.58728775  0.90778986  0.96343167    -0.81500
O1487       O  0.52590127  0.82511629  0.53233118    -0.79900
O1488       O  0.56265399  0.92569626  0.97044903    -0.84100
O1489       O  0.56304320  0.92251687  0.53898667    -0.78900
O1490       O  0.56588637  0.85226373  0.96381078    -0.80700
O1491       O  0.49162504  0.84604151  0.53920128    -0.83400
C1492       C  0.58418956  0.92311722  0.54591412     0.97300
C1493       C  0.58082905  0.92447750  0.95637460     1.04800
O1494       O  0.54016771  0.87474772  0.00148841    -1.12400
O1495       O  0.48813334  0.84811993  0.97050134    -0.74800
O1496       O  0.50695002  0.89142088  0.96999975    -0.78300
O1497       O  0.59161659  0.90895832  0.53247159    -0.79000
C1498       C  0.48963351  0.86893051  0.96044242     0.96200
O1499       O  0.50727253  0.88896159  0.53863356    -0.77000
O1500       O  0.52221980  0.82732065  0.96400182    -0.82200
C1501       C  0.54890493  0.83230683  0.54203766     0.98900
C1502       C  0.54455870  0.83361524  0.95292094     1.04800
O1503       O  0.56918849  0.85304572  0.53272216    -0.77800
C1504       C  0.49248924  0.86637324  0.54988577     1.03100
Fe1505     Fe  0.90272496  0.36488618  0.49558548     1.65800
Fe1506     Fe  0.83673279  0.32334692  0.00121847     1.73200
Fe1507     Fe  0.87857301  0.29933524  0.00148452     1.54400
O1508       O  0.90872528  0.31503036  0.96867034    -0.81500
O1509       O  0.82674179  0.29936026  0.53940062    -0.79900
O1510       O  0.91729216  0.35529589  0.95783547    -0.84100
O1511       O  0.92604736  0.35817365  0.52500679    -0.78900
O1512       O  0.85190889  0.27963862  0.96602937    -0.80700
O1513       O  0.84716620  0.35420379  0.53175893    -0.83400
C1514       C  0.92445393  0.33935126  0.54070738     0.97300
C1515       C  0.92060464  0.33612164  0.95303876     1.04800
O1516       O  0.87259329  0.32911039  0.99939189    -1.12400
O1517       O  0.84208856  0.34650203  0.96301135    -0.74800
O1518       O  0.88438535  0.37718397  0.96502098    -0.78300
O1519       O  0.90553800  0.31602222  0.53746145    -0.79000
C1520       C  0.86164262  0.36756961  0.95332376     0.96200
O1521       O  0.89095956  0.37778782  0.53338692    -0.77000
O1522       O  0.82195178  0.29172185  0.97125899    -0.82200
C1523       C  0.83201376  0.28209479  0.54764807     0.98900
C1524       C  0.82998229  0.27754404  0.95914410     1.04800
O1525       O  0.84962287  0.27927391  0.53450094    -0.77800
C1526       C  0.86853146  0.37242880  0.54329108     1.03100
Fe1527     Fe  0.62387026  0.08145073  0.74703301     1.65800
Fe1528     Fe  0.66475065  0.14770383  0.75078203     1.73200
Fe1529     Fe  0.69060404  0.10720683  0.75037699     1.54400
O1530       O  0.67472249  0.07870160  0.78438170    -0.81500
O1531       O  0.69460633  0.16209352  0.71845737    -0.79900
O1532       O  0.63128207  0.06044091  0.77924858    -0.84100
O1533       O  0.63332400  0.06473403  0.71119195    -0.78900
O1534       O  0.70936352  0.13456573  0.78537749    -0.80700
O1535       O  0.63921039  0.14096797  0.71446624    -0.83400
C1536       C  0.65385833  0.06473738  0.70269057     0.97300
C1537       C  0.65134702  0.06135342  0.79117793     1.04800
O1538       O  0.65975728  0.11211538  0.74944384    -1.12400
O1539       O  0.63517298  0.13795876  0.78288910    -0.74800
O1540       O  0.60979973  0.09457064  0.78244049    -0.78300
O1541       O  0.67610702  0.07889891  0.71556530    -0.79000
C1542       C  0.61531192  0.11693323  0.79235565     0.96200
O1543       O  0.61146877  0.09792539  0.71420112    -0.77000
O1544       O  0.69078019  0.15907831  0.78741957    -0.82200
C1545       C  0.70982091  0.15504191  0.70713925     0.98900
C1546       C  0.70692637  0.15271606  0.79743349     1.04800
O1547       O  0.71028645  0.13500316  0.71634982    -0.77800
C1548       C  0.61895918  0.12072088  0.70424053     1.03100
Fe1549     Fe  0.89936872  0.53359090  0.75491681     1.65800
Fe1550     Fe  0.83379417  0.50978684  0.74873725     1.73200
Fe1551     Fe  0.87686159  0.57569170  0.75031048     1.54400
O1552       O  0.90739355  0.58928636  0.78276894    -0.81500
O1553       O  0.82496187  0.52458556  0.71041702    -0.79900
O1554       O  0.91257183  0.55568421  0.79468651    -0.84100
O1555       O  0.92413087  0.56522686  0.72737458    -0.78900
O1556       O  0.85130452  0.56858338  0.78681380    -0.80700
O1557       O  0.84417363  0.48915389  0.71827446    -0.83400
C1558       C  0.92178821  0.58142573  0.71039647     0.97300
C1559       C  0.91675179  0.57848046  0.79990115     1.04800
O1560       O  0.86986377  0.53962274  0.75132869    -1.12400
O1561       O  0.83807935  0.49131382  0.78688984    -0.74800
O1562       O  0.87962336  0.50113201  0.78305640    -0.78300
O1563       O  0.90272837  0.58537414  0.71338229    -0.79000
C1564       C  0.85690903  0.48822541  0.79492032     0.96200
O1565       O  0.88804385  0.51084532  0.71539928    -0.77000
O1566       O  0.81951861  0.52710347  0.77890247    -0.82200
C1567       C  0.82967999  0.54741102  0.70421245     0.98900
C1568       C  0.82890827  0.54889673  0.79314782     1.04800
O1569       O  0.84731670  0.56763519  0.71820846    -0.77800
C1570       C  0.86553687  0.49313754  0.70602182     1.03100
Fe1571     Fe  0.44962456  0.07936643  0.50001676     1.65800
Fe1572     Fe  0.47438616  0.14500677  0.99976775     1.73200
Fe1573     Fe  0.40767979  0.10280001  0.00139385     1.54400
O1574       O  0.39343605  0.07194694  0.96988040    -0.81500
O1575       O  0.46057392  0.15642975  0.53706808    -0.79900
O1576       O  0.42540583  0.06304756  0.96238104    -0.84100
O1577       O  0.41934103  0.05725067  0.53044335    -0.78900
O1578       O  0.41455687  0.12763945  0.96400779    -0.80700
O1579       O  0.49595905  0.13661380  0.53072679    -0.83400
C1580       C  0.40171748  0.05920307  0.54487073     0.97300
C1581       C  0.40335161  0.06037952  0.95540633     1.04800
O1582       O  0.44389065  0.10913311  0.00048792    -1.12400
O1583       O  0.49182070  0.13789387  0.96217197    -0.74800
O1584       O  0.48070722  0.09655166  0.96950995    -0.78300
O1585       O  0.39694963  0.07734760  0.53906032    -0.79000
C1586       C  0.49420674  0.11833830  0.95592017     0.96200
O1587       O  0.47488619  0.09333610  0.53735510    -0.77000
O1588       O  0.45699486  0.15801812  0.96862181    -0.82200
C1589       C  0.43773280  0.15140897  0.54469645     0.98900
C1590       C  0.43463700  0.14912477  0.95589355     1.04800
O1591       O  0.41687951  0.13290493  0.53262153    -0.77800
C1592       C  0.49353686  0.11623843  0.54358203     1.03100
Fe1593     Fe  0.61937993  0.53355852  0.50225242     1.65800
Fe1594     Fe  0.66064018  0.50939779  0.99811732     1.73200
Fe1595     Fe  0.68589439  0.57593182  0.00122796     1.54400
O1596       O  0.67098902  0.58824637  0.96576803    -0.81500
O1597       O  0.69115354  0.52531308  0.53011224    -0.79900
O1598       O  0.62746231  0.56324126  0.97099192    -0.84100
O1599       O  0.62767920  0.55795549  0.53958614    -0.78900
O1600       O  0.70677966  0.56851660  0.96777185    -0.80700
O1601       O  0.63516241  0.48953728  0.53434501    -0.83400
C1602       C  0.64728413  0.57967471  0.54765013     0.97300
C1603       C  0.64771744  0.58203654  0.95840229     1.04800
O1604       O  0.65535150  0.53963967  0.00052969    -1.12400
O1605       O  0.63084118  0.48937849  0.96568477    -0.74800
O1606       O  0.60657822  0.50824244  0.96518743    -0.78300
O1607       O  0.66957444  0.58906291  0.53455964    -0.79000
C1608       C  0.61204219  0.49159765  0.95493169     0.96200
O1609       O  0.60629505  0.50301710  0.53359074    -0.77000
O1610       O  0.68669959  0.52529509  0.96168028    -0.82200
C1611       C  0.70563167  0.54737724  0.54304822     0.98900
C1612       C  0.70428854  0.54834859  0.95421991     1.04800
O1613       O  0.70426126  0.56754127  0.53665317    -0.77800
C1614       C  0.61429224  0.48828286  0.54398481     1.03100
Fe1615     Fe  0.44384450  0.35641557  0.74666833     1.65800
Fe1616     Fe  0.47096554  0.31770758  0.75126517     1.73200
Fe1617     Fe  0.40358324  0.28964786  0.75009691     1.54400
O1618       O  0.38936735  0.30487496  0.78303457    -0.81500
O1619       O  0.45670359  0.28900755  0.71733770    -0.79900
O1620       O  0.41449853  0.34812464  0.77816088    -0.84100
O1621       O  0.41785907  0.34611855  0.71052010    -0.78900
O1622       O  0.41233394  0.27183685  0.78610898    -0.80700
O1623       O  0.49099588  0.34473753  0.71660061    -0.83400
C1624       C  0.39746631  0.32532005  0.70175054     0.97300
C1625       C  0.39493720  0.32796510  0.78964768     1.04800
O1626       O  0.43941853  0.32120557  0.74938624    -1.12400
O1627       O  0.48892865  0.34622149  0.78536939    -0.74800
O1628       O  0.47036721  0.37073775  0.78289742    -0.78300
O1629       O  0.38981990  0.30310656  0.71408971    -0.79000
C1630       C  0.48654336  0.36516350  0.79488505     0.96200
O1631       O  0.47360425  0.37016840  0.71418592    -0.77000
O1632       O  0.45585441  0.29004105  0.78609464    -0.82200
C1633       C  0.43410285  0.27204145  0.70724479     0.98900
C1634       C  0.43332160  0.27374583  0.79673250     1.04800
O1635       O  0.41304418  0.27031134  0.71716854    -0.77800
C1636       C  0.49024670  0.36409077  0.70551032     1.03100
Fe1637     Fe  0.07865885  0.61994901  0.50047773     1.65800
Fe1638     Fe  0.14490167  0.66106047  0.00121406     1.73200
Fe1639     Fe  0.10410566  0.68608903  0.00105188     1.54400
O1640       O  0.07279885  0.66910501  0.96983089    -0.81500
O1641       O  0.15613172  0.68614543  0.53843693    -0.79900
O1642       O  0.06244155  0.62771866  0.96262197    -0.84100
O1643       O  0.05714692  0.62883774  0.53075798    -0.78900
O1644       O  0.12910945  0.70323814  0.96352517    -0.80700
O1645       O  0.13555759  0.63116357  0.53251792    -0.83400
C1646       C  0.06014812  0.64897427  0.54480058     0.97300
C1647       C  0.06015685  0.64724551  0.95584373     1.04800
O1648       O  0.10921715  0.65571693  0.00088757    -1.12400
O1649       O  0.13758946  0.63635431  0.96412422    -0.74800
O1650       O  0.09557640  0.60558613  0.97008148    -0.78300
O1651       O  0.07860672  0.67197417  0.53853756    -0.79000
C1652       C  0.11791786  0.61422611  0.95745351     0.96200
O1653       O  0.09202462  0.60879868  0.53845825    -0.77000
O1654       O  0.15920034  0.69160861  0.96988820    -0.82200
C1655       C  0.15167220  0.70408613  0.54610187     0.98900
C1656       C  0.15052371  0.70454032  0.95600033     1.04800
O1657       O  0.13447417  0.70739559  0.53248901    -0.77800
C1658       C  0.11488355  0.61377317  0.54598317     1.03100
Fe1659     Fe  0.36004556  0.90195361  0.75198816     1.65800
Fe1660     Fe  0.31946995  0.83624310  0.75164872     1.73200
Fe1661     Fe  0.29392624  0.87638833  0.75205189     1.54400
O1662       O  0.31149789  0.90770918  0.78303090    -0.81500
O1663       O  0.29439624  0.82506800  0.71406012    -0.79900
O1664       O  0.35240177  0.91625469  0.79141965    -0.84100
O1665       O  0.35049136  0.92424001  0.72385840    -0.78900
O1666       O  0.27726966  0.85192491  0.78974499    -0.80700
O1667       O  0.35023044  0.84652524  0.72063323    -0.83400
C1668       C  0.33032796  0.92048327  0.70890166     0.97300
C1669       C  0.33305618  0.91896872  0.79810192     1.04800
O1670       O  0.32438354  0.87144160  0.75182640    -1.12400
O1671       O  0.34394327  0.84382164  0.78935374    -0.74800
O1672       O  0.37550843  0.88474662  0.78001240    -0.78300
O1673       O  0.30752141  0.90119621  0.71410116    -0.79000
C1674       C  0.36673150  0.86320377  0.79429179     0.96200
O1675       O  0.37035867  0.88960394  0.71273644    -0.77000
O1676       O  0.28834165  0.82153902  0.78266724    -0.82200
C1677       C  0.27587436  0.82909730  0.70722004     0.98900
C1678       C  0.27522596  0.83014712  0.79632682     1.04800
O1679       O  0.27222117  0.84577343  0.72132995    -0.77800
C1680       C  0.36668365  0.86717004  0.70615578     1.03100
C1681       C  0.19819811  0.73512620  0.88840114    -0.22300
C1682       C  0.20257933  0.76060219  0.88881604     0.09600
C1683       C  0.18844004  0.76707482  0.90981066     0.10000
C1684       C  0.17064655  0.74797294  0.93057108    -0.17300
C1685       C  0.16675574  0.72258984  0.93083928    -0.27700
C1686       C  0.18025649  0.71590859  0.90881740     0.18400
C1687       C  0.22162708  0.77987666  0.86638704     0.12300
C1688       C  0.19274668  0.79431940  0.91094587    -0.12000
H1689       H  0.16041149  0.75315112  0.94741813     0.12600
C1690       C  0.17575663  0.68865670  0.90530051    -0.22900
H1691       H  0.20866806  0.73011585  0.87167531     0.08300
C1692       C  0.24898944  0.79080592  0.87016266     0.04600
C1693       C  0.26610835  0.80753329  0.84706939    -0.20100
C1694       C  0.25644598  0.81371478  0.82054345    -0.12400
C1695       C  0.22903733  0.80302743  0.81699464     0.13300
C1696       C  0.21199808  0.78625626  0.84004644    -0.22800
C1697       C  0.26008812  0.78494836  0.89859800    -0.05900
H1698       H  0.28713086  0.81577461  0.84963166     0.14800
C1699       C  0.21692249  0.80787406  0.78870536    -0.16100
H1700       H  0.19094732  0.77756109  0.83709595     0.09200
H1701       H  0.19384953  0.68856643  0.91203397     0.07000
H1702       H  0.17108228  0.68240565  0.88058770     0.08200
H1703       H  0.15904255  0.67384859  0.91922785     0.07300
H1704       H  0.18734672  0.79924849  0.88823405     0.02100
H1705       H  0.21373992  0.80857012  0.91601850     0.02600
H1706       H  0.18062645  0.79625538  0.92930638     0.06100
H1707       H  0.28191827  0.79567056  0.89821916     0.05100
H1708       H  0.25299457  0.76371513  0.89978029    -0.00700
H1709       H  0.25377346  0.79087049  0.91988517     0.00800
H1710       H  0.20316663  0.78892538  0.77733183     0.04500
H1711       H  0.23150694  0.82044640  0.77097837     0.06400
H1712       H  0.20577722  0.81738872  0.79598896     0.07300
C1713       C  0.19278911  0.73279949  0.61962041    -0.22300
C1714       C  0.20158598  0.75940272  0.61567619     0.09600
C1715       C  0.19297825  0.76766367  0.58977220     0.10000
C1716       C  0.17608456  0.74907135  0.56790804    -0.17300
C1717       C  0.16785684  0.72243356  0.57120068    -0.27700
C1718       C  0.17598762  0.71413891  0.59777324     0.18400
C1719       C  0.22027087  0.77828108  0.63873806     0.12300
C1720       C  0.20169457  0.79608667  0.58523798    -0.12000
H1721       H  0.16984209  0.75547929  0.54769532     0.12600
C1722       C  0.16658884  0.68567432  0.60378131    -0.22900
H1723       H  0.19935425  0.72668270  0.63981027     0.08300
C1724       C  0.21163523  0.78249605  0.66757989     0.04600
C1725       C  0.23023563  0.79996828  0.68906969    -0.20100
C1726       C  0.25726713  0.81307032  0.68242427    -0.12400
C1727       C  0.26581287  0.80936035  0.65307027     0.13300
C1728       C  0.24716699  0.79177473  0.63174864    -0.22800
C1729       C  0.18284118  0.76839245  0.67568410    -0.05900
H1730       H  0.22370983  0.80283229  0.71153350     0.14800
C1731       C  0.29422268  0.82409903  0.64299423    -0.16100
H1732       H  0.25363733  0.78863294  0.60938981     0.09200
H1733       H  0.17325299  0.68274297  0.62685184     0.07000
H1734       H  0.17450974  0.67807158  0.58589246     0.08200
H1735       H  0.14476210  0.67409256  0.60345138     0.07300
H1736       H  0.22341352  0.80780390  0.58298408     0.02100
H1737       H  0.19556139  0.80325156  0.60556945     0.02600
H1738       H  0.19295490  0.79920200  0.56391980     0.06100
H1739       H  0.17941757  0.77408176  0.69907815     0.05100
H1740       H  0.17481384  0.74694956  0.67573352    -0.00700
H1741       H  0.17201008  0.77314335  0.65823663     0.00800
H1742       H  0.30122824  0.81014822  0.63945628     0.04500
H1743       H  0.30742197  0.83925735  0.65985704     0.06400
H1744       H  0.29597294  0.83430540  0.62064656     0.07300
C1745       C  0.53087018  0.39177122  0.86667550    -0.22300
C1746       C  0.54022248  0.41857014  0.86357814     0.09600
C1747       C  0.53139769  0.42758191  0.83865760     0.10000
C1748       C  0.51359219  0.40952351  0.81706615    -0.17300
C1749       C  0.50416277  0.38255937  0.81985968    -0.27700
C1750       C  0.51249241  0.37351456  0.84556581     0.18400
C1751       C  0.55857263  0.43684543  0.88730594     0.12300
C1752       C  0.54095801  0.45627881  0.83470779    -0.12000
H1753       H  0.50731841  0.41661170  0.79753055     0.12600
C1754       C  0.50162364  0.34494201  0.85264614    -0.22900
H1755       H  0.53738166  0.38498523  0.88629557     0.08300
C1756       C  0.54925018  0.44393756  0.91350143     0.04600
C1757       C  0.56734547  0.46211813  0.93475586    -0.20100
C1758       C  0.59458900  0.47320820  0.93068256    -0.12400
C1759       C  0.60390918  0.46603092  0.90428911     0.13300
C1760       C  0.58567917  0.44770762  0.88310846    -0.22800
C1761       C  0.52020643  0.43206352  0.91920798    -0.05900
H1762       H  0.56013450  0.46739869  0.95504105     0.14800
C1763       C  0.63269089  0.47795068  0.89678044    -0.16100
H1764       H  0.59266925  0.44227280  0.86274531     0.09200
H1765       H  0.49443103  0.34087494  0.87707252     0.07000
H1766       H  0.51738401  0.34016326  0.84999893     0.08200
H1767       H  0.48470613  0.33161790  0.83783502     0.07300
H1768       H  0.56265531  0.46738621  0.83200523     0.02100
H1769       H  0.53559585  0.46374423  0.85540427     0.02600
H1770       H  0.53218748  0.45999228  0.81384505     0.06100
H1771       H  0.51629373  0.43963600  0.94094999     0.05100
H1772       H  0.51076709  0.41050405  0.92138169    -0.00700
H1773       H  0.51100909  0.43665197  0.89955468     0.00800
H1774       H  0.63806374  0.46257936  0.89769290     0.04500
H1775       H  0.64582548  0.49405974  0.91262277     0.06400
H1776       H  0.63649895  0.48630192  0.87289279     0.07300
C1777       C  0.57446308  0.42469610  0.58941258    -0.22300
C1778       C  0.56372438  0.43281528  0.61286043     0.09600
C1779       C  0.57083222  0.45932091  0.61467528     0.10000
C1780       C  0.58777579  0.47700442  0.59221239    -0.17300
C1781       C  0.59829877  0.46897099  0.56832777    -0.27700
C1782       C  0.59182192  0.44249123  0.56713754     0.18400
C1783       C  0.54477449  0.41335593  0.63522998     0.12300
C1784       C  0.56046278  0.46890562  0.64032344    -0.12000
H1785       H  0.59283700  0.49728049  0.59326462     0.12600
C1786       C  0.60223505  0.43264313  0.54182878    -0.22900
H1787       H  0.56895511  0.40429413  0.58835538     0.08300
C1788       C  0.51741620  0.40072819  0.63003429     0.04600
C1789       C  0.50011520  0.38452932  0.65332839    -0.20100
C1790       C  0.50956117  0.38044070  0.68152140    -0.12400
C1791       C  0.53706761  0.39286523  0.68650994     0.13300
C1792       C  0.55429020  0.40897668  0.66309862    -0.22800
C1793       C  0.50653032  0.40452381  0.60001320    -0.05900
H1794       H  0.47907197  0.37503461  0.64957996     0.14800
C1795       C  0.54907715  0.39087663  0.71668072    -0.08900
H1796       H  0.57533882  0.41898659  0.66706769     0.09200
H1797       H  0.59670706  0.43664654  0.51861448     0.07000
H1798       H  0.59416680  0.41123138  0.54370709     0.08200
H1799       H  0.62395235  0.44244466  0.54359480     0.07300
H1800       H  0.56659054  0.46518081  0.66330445     0.02100
H1801       H  0.53868098  0.45852751  0.63928128     0.02600
H1802       H  0.56805131  0.49022547  0.63838886     0.06100
H1803       H  0.48469498  0.39317310  0.59972289     0.05100
H1804       H  0.51367828  0.39791349  0.58011815    -0.00700
H1805       H  0.51302735  0.42550032  0.59686199     0.00800
H1806       H  0.56105713  0.38167905  0.71221648     0.04500
H1807       H  0.53440805  0.37941034  0.73486271     0.06400
H1808       H  0.56206085  0.41079581  0.72629279     0.07300
C1809       C  0.38713158  0.02252709  0.87997405    -0.22300
C1810       C  0.36233252  0.00110985  0.88704852     0.09600
C1811       C  0.34972970  0.00081792  0.91502708     0.10000
C1812       C  0.36290959  0.02152978  0.93621465    -0.17300
C1813       C  0.38843102  0.04223198  0.92996737    -0.27700
C1814       C  0.40029410  0.04327437  0.90096964     0.18400
C1815       C  0.35120230  0.97833438  0.86593835     0.12300
C1816       C  0.32273088  0.97837709  0.92274437    -0.12000
H1817       H  0.35385628  0.02086823  0.95841336     0.12600
C1818       C  0.42668360  0.06594126  0.89136197    -0.22900
H1819       H  0.39653153  0.02275563  0.85819596     0.08300
C1820       C  0.33816782  0.97765456  0.83812813     0.04600
C1821       C  0.33075182  0.95688788  0.81722223    -0.20100
C1822       C  0.33649722  0.93712548  0.82345852    -0.12400
C1823       C  0.34823458  0.93710645  0.85224025     0.13300
C1824       C  0.35564818  0.95789624  0.87298968    -0.22800
C1825       C  0.33274985  0.99915931  0.83024166    -0.05900
H1826       H  0.32172096  0.95682908  0.79518741     0.14800
C1827       C  0.35303481  0.91548493  0.86199127    -0.16100
H1828       H  0.36542268  0.95843584  0.89462813     0.09200
H1829       H  0.42461322  0.07395683  0.86884721     0.07000
H1830       H  0.44087179  0.05911411  0.88834513     0.08200
H1831       H  0.43492374  0.08226145  0.90836251     0.07300
H1832       H  0.32306990  0.95989278  0.92396939     0.02100
H1833       H  0.30860167  0.97654875  0.90443028     0.02600
H1834       H  0.31566057  0.98128941  0.94550329     0.06100
H1835       H  0.32224498  0.99552569  0.80764749     0.05100
H1836       H  0.35153731  0.01811214  0.82856127    -0.00700
H1837       H  0.32037147  0.00053606  0.84869568     0.00800
H1838       H  0.37449068  0.92335398  0.86429560     0.04500
H1839       H  0.34474952  0.89883153  0.84547071     0.06400
H1840       H  0.34356841  0.90758678  0.88490776     0.07300
C1841       C  0.34858069  0.01032244  0.60081465    -0.22300
C1842       C  0.36287719  0.00105625  0.61685091     0.09600
C1843       C  0.38949683  0.01094584  0.60936776     0.10000
C1844       C  0.40142794  0.03034426  0.58651715    -0.17300
C1845       C  0.38729761  0.03968483  0.56993119    -0.27700
C1846       C  0.36020233  0.02907139  0.57689359     0.18400
C1847       C  0.34977773  0.98022686  0.64065286     0.12300
C1848       C  0.40523134  0.00059952  0.62504891    -0.12000
H1849       H  0.42202964  0.03807316  0.58131151     0.12600
C1850       C  0.34232699  0.03549811  0.55879676    -0.22900
H1851       H  0.32796107  0.00220538  0.60628851     0.08300
C1852       C  0.35274950  0.98625564  0.67271838     0.04600
C1853       C  0.34500713  0.96603329  0.69452614    -0.20100
C1854       C  0.33405845  0.93991349  0.68499029    -0.12400
C1855       C  0.32953574  0.93368592  0.65288445     0.13300
C1856       C  0.33740229  0.95400918  0.63110839    -0.22800
C1857       C  0.36467420  0.01408375  0.68382410    -0.05900
H1858       H  0.34820281  0.97068799  0.71916193     0.14800
C1859       C  0.31804178  0.90621969  0.64054415    -0.16100
H1860       H  0.33521814  0.94950590  0.60641544     0.09200
H1861       H  0.33528193  0.04561012  0.57427664     0.07000
H1862       H  0.32505582  0.01708190  0.55028156     0.08200
H1863       H  0.35153230  0.04771287  0.53798544     0.07300
H1864       H  0.39586095  0.97926757  0.62067104     0.02100
H1865       H  0.40615466  0.00406087  0.65054145     0.02600
H1866       H  0.42569742  0.01023810  0.61613093     0.06100
H1867       H  0.36542967  0.01534588  0.70966985     0.05100
H1868       H  0.35268396  0.02234332  0.67525269    -0.00700
H1869       H  0.38502300  0.02615850  0.67487969     0.00800
H1870       H  0.29959376  0.90057257  0.62767259     0.04500
H1871       H  0.31348535  0.89148977  0.65900585     0.06400
H1872       H  0.33220327  0.90542844  0.62427457     0.07300
C1873       C  0.42134544  0.19811903  0.58561868    -0.22300
C1874       C  0.43385172  0.20127264  0.61437479     0.09600
C1875       C  0.44710168  0.18759418  0.62044005     0.10000
C1876       C  0.44781344  0.17123661  0.59733525    -0.17300
C1877       C  0.43544697  0.16815387  0.56839715    -0.27700
C1878       C  0.42215710  0.18194775  0.56236576     0.18400
C1879       C  0.43353251  0.21966627  0.63743445     0.12300
C1880       C  0.46067695  0.19049693  0.65116737    -0.12000
H1881       H  0.45809134  0.16079543  0.60184109     0.12600
C1882       C  0.40971027  0.18122040  0.53136048    -0.22900
H1883       H  0.41142061  0.20889797  0.58100920     0.08300
C1884       C  0.45247072  0.24659303  0.63663895     0.04600
C1885       C  0.45190042  0.26320107  0.65945851    -0.20100
C1886       C  0.43256652  0.25361336  0.68282579    -0.12400
C1887       C  0.41322778  0.22659763  0.68316410     0.13300
C1888       C  0.41406628  0.20997651  0.66047783    -0.22800
C1889       C  0.47337924  0.25772965  0.61182185    -0.05900
H1890       H  0.46664534  0.28385167  0.65902803     0.14800
C1891       C  0.39225828  0.21492506  0.70791338    -0.16100
H1892       H  0.39958582  0.18924404  0.66079331     0.09200
H1893       H  0.41857163  0.20141689  0.52203923     0.07000
H1894       H  0.38828903  0.17306821  0.53455793     0.08200
H1895       H  0.41250706  0.16945920  0.51347352     0.07300
H1896       H  0.44615215  0.18411114  0.67040412     0.02100
H1897       H  0.47609864  0.21127105  0.65483807     0.02600
H1898       H  0.47016961  0.17849199  0.65207950     0.06100
H1899       H  0.48669901  0.27916207  0.61461177     0.05100
H1900       H  0.46404858  0.25412565  0.58846526    -0.00700
H1901       H  0.48542309  0.24828914  0.61307719     0.00800
H1902       H  0.37981208  0.19334811  0.70550436     0.04500
H1903       H  0.37914717  0.22313116  0.70599279     0.06400
H1904       H  0.40149673  0.21920296  0.73137542     0.07300
C1905       C  0.41344986  0.22821858  0.86750508    -0.22300
C1906       C  0.43015595  0.21809794  0.86391193     0.09600
C1907       C  0.44808965  0.22675804  0.83891989     0.10000
C1908       C  0.44857660  0.24498980  0.81774151    -0.17300
C1909       C  0.43186770  0.25523900  0.82109410    -0.27700
C1910       C  0.41441940  0.24709946  0.84684672     0.18400
C1911       C  0.43016082  0.20009575  0.88792879     0.12300
C1912       C  0.46705505  0.21711193  0.83493145    -0.12000
H1913       H  0.46207178  0.25118340  0.79822521     0.12600
C1914       C  0.39767670  0.25878660  0.85448924    -0.22900
H1915       H  0.40019507  0.22200814  0.88726848     0.08300
C1916       C  0.44365978  0.20985781  0.91634889     0.04600
C1917       C  0.44433572  0.19251695  0.93793540    -0.20100
C1918       C  0.43219272  0.16558896  0.93174305    -0.12400
C1919       C  0.41906400  0.15581322  0.90287646     0.13300
C1920       C  0.41788574  0.17321397  0.88156369    -0.22800
C1921       C  0.45788246  0.23869168  0.92361707    -0.05900
H1922       H  0.45453951  0.20009220  0.95989601     0.14800
C1923       C  0.40737957  0.12769647  0.89288244    -0.16100
H1924       H  0.40801203  0.16589869  0.85937635     0.09200
H1925       H  0.40182337  0.26636453  0.87875560     0.07000
H1926       H  0.37657916  0.24349636  0.85264416     0.08200
H1927       H  0.40154171  0.27543246  0.83932415     0.07300
H1928       H  0.45603945  0.19559291  0.83151546     0.02100
H1929       H  0.47966069  0.22198776  0.85598177     0.02600
H1930       H  0.48006916  0.22620100  0.81445104     0.06100
H1931       H  0.46787030  0.24306383  0.94663757     0.05100
H1932       H  0.44372143  0.24570493  0.92405017    -0.00700
H1933       H  0.47302522  0.24964291  0.90555621     0.00800
H1934       H  0.38583469  0.11866744  0.88968314     0.04500
H1935       H  0.41100972  0.11568477  0.90957604     0.06400
H1936       H  0.41621047  0.12698229  0.87034600     0.07300
C1937       C  0.95405910  0.59496666  0.87624778    -0.22300
C1938       C  0.97594463  0.61935955  0.86897470     0.09600
C1939       C  0.97637497  0.63185153  0.84084419     0.10000
C1940       C  0.95561866  0.61876538  0.81952761    -0.17300
C1941       C  0.93460454  0.59345927  0.82578130    -0.27700
C1942       C  0.93315063  0.58199729  0.85521742     0.18400
C1943       C  0.99907095  0.63003742  0.88987248     0.12300
C1944       C  0.99898127  0.65868083  0.83310973    -0.12000
H1945       H  0.95655766  0.62770972  0.79716736     0.12600
C1946       C  0.90988224  0.55631510  0.86536676    -0.22900
H1947       H  0.95359335  0.58568526  0.89820617     0.08300
C1948       C  0.99980177  0.64186264  0.91862301     0.04600
C1949       C  0.02096742  0.64883329  0.93904898    -0.20100
C1950       C  0.04110604  0.64384137  0.93141229    -0.12400
C1951       C  0.04094650  0.63316708  0.90189731     0.13300
C1952       C  0.01982909  0.62628586  0.88158473    -0.22800
C1953       C  0.97805399  0.64665654  0.92786551    -0.05900
H1954       H  0.02115574  0.65704552  0.96167123     0.14800
C1955       C  0.06273575  0.62894452  0.89094045    -0.16100
H1956       H  0.01925589  0.61738565  0.85931478     0.09200
H1957       H  0.90198192  0.55917903  0.88752328     0.07000
H1958       H  0.91620864  0.54187930  0.86934647     0.08200
H1959       H  0.89355402  0.54819076  0.84825235     0.07300
H1960       H  0.01752011  0.65829029  0.83185461     0.02100
H1961       H  0.00088178  0.67273527  0.85142890     0.02600
H1962       H  0.99604908  0.66577069  0.81035677     0.06100
H1963       H  0.98181766  0.65634486  0.95097592     0.05100
H1964       H  0.95913080  0.62780776  0.92916016    -0.00700
H1965       H  0.97633320  0.65946043  0.91033371     0.00800
H1966       H  0.05485324  0.60775106  0.88704908     0.04500
H1967       H  0.07937486  0.63630027  0.90756461     0.06400
H1968       H  0.07075796  0.63950470  0.86861663     0.07300
C1969       C  0.02681014  0.64244916  0.62267122    -0.22300
C1970       C  0.00034988  0.62915422  0.61341557     0.09600
C1971       C  0.99396654  0.62510488  0.58145702     0.10000
C1972       C  0.01417462  0.63287298  0.55952367    -0.17300
C1973       C  0.04061127  0.64494151  0.56880292    -0.27700
C1974       C  0.04711875  0.65041574  0.60074674     0.18400
C1975       C  0.97971890  0.61701199  0.63763757     0.12300
C1976       C  0.96582784  0.61222058  0.57059854    -0.12000
H1977       H  0.00929878  0.62895715  0.53499256     0.12600
C1978       C  0.07494406  0.66321762  0.61277379    -0.22900
H1979       H  0.03157766  0.64552731  0.64729408     0.08300
C1980       C  0.97004797  0.59092834  0.64697572     0.04600
C1981       C  0.95113882  0.58017243  0.67057943    -0.20100
C1982       C  0.94168376  0.59482778  0.68550320    -0.12400
C1983       C  0.95179995  0.62125466  0.67641686     0.13300
C1984       C  0.97041933  0.63182308  0.65221632    -0.22800
C1985       C  0.97993794  0.57449194  0.63231691    -0.05900
H1986       H  0.94365735  0.56003294  0.67745258     0.14800
C1987       C  0.94475892  0.63943022  0.69244219    -0.16100
H1988       H  0.97827429  0.65199955  0.64520836     0.09200
H1989       H  0.07666174  0.64990412  0.62951447     0.07000
H1990       H  0.07994481  0.68164471  0.62502219     0.08200
H1991       H  0.08967046  0.66798424  0.59417545     0.07300
H1992       H  0.95708117  0.62391691  0.57847979     0.02100
H1993       H  0.95422260  0.59219394  0.58036587     0.02600
H1994       H  0.96432310  0.61070504  0.54478958     0.06100
H1995       H  0.97047291  0.55458239  0.64263544     0.05100
H1996       H  0.00148618  0.58395854  0.63590540    -0.00700
H1997       H  0.97568743  0.57233311  0.60695628     0.00800
H1998       H  0.96303628  0.65733701  0.70004781     0.04500
H1999       H  0.93265253  0.63103595  0.71357004     0.06400
H2000       H  0.93411210  0.64514479  0.67588325     0.07300
C2001       C  0.76957492  0.56859737  0.58677644    -0.22300
C2002       C  0.76064825  0.55017512  0.61090841     0.09600
C2003       C  0.73367939  0.53117337  0.61296514     0.10000
C2004       C  0.71618015  0.53096726  0.59065422    -0.17300
C2005       C  0.72501009  0.54941131  0.56640985    -0.27700
C2006       C  0.75219149  0.56831596  0.56422389     0.18400
C2007       C  0.77985594  0.55088992  0.63370279     0.12300
C2008       C  0.72345810  0.51101660  0.63857956    -0.12000
H2009       H  0.69545587  0.51632982  0.59213003     0.12600
C2010       C  0.76391446  0.58764402  0.53778035    -0.22900
H2011       H  0.79037767  0.58296199  0.58515391     0.08300
C2012       C  0.79366241  0.53772122  0.62808621     0.04600
C2013       C  0.81032540  0.53752167  0.65129298    -0.20100
C2014       C  0.81348803  0.55018891  0.67998039    -0.12400
C2015       C  0.79956274  0.56341214  0.68553437     0.13300
C2016       C  0.78327208  0.56390633  0.66205288    -0.22800
C2017       C  0.79044512  0.52354487  0.59783020    -0.05900
H2018       H  0.82074833  0.52717637  0.64717943     0.14800
C2019       C  0.79993066  0.57583019  0.71635245    -0.16100
H2020       H  0.77233552  0.57371350  0.66632685     0.09200
H2021       H  0.77931574  0.58525280  0.52611844     0.07000
H2022       H  0.77308181  0.60785371  0.54711245     0.08200
H2023       H  0.74949342  0.58512241  0.51964051     0.07300
H2024       H  0.72765276  0.52087224  0.66160452     0.02100
H2025       H  0.73316020  0.49923053  0.63733533     0.02600
H2026       H  0.70189234  0.49748114  0.63669594     0.06100
H2027       H  0.80252013  0.51410142  0.59731208     0.05100
H2028       H  0.79664807  0.53757216  0.57812518    -0.00700
H2029       H  0.76954135  0.50810244  0.59459060     0.00800
H2030       H  0.80829481  0.59716466  0.71304708     0.04500
H2031       H  0.81132332  0.57291735  0.73472342     0.06400
H2032       H  0.77950652  0.56712949  0.72517646     0.07300
C2033       C  0.75028532  0.57096508  0.88359910    -0.22300
C2034       C  0.76038602  0.55415207  0.88570114     0.09600
C2035       C  0.75208039  0.53581997  0.91022692     0.10000
C2036       C  0.73391299  0.53470642  0.93205022    -0.17300
C2037       C  0.72349455  0.55127760  0.92996885    -0.27700
C2038       C  0.73165287  0.56956061  0.90514324     0.18400
C2039       C  0.77832588  0.55468649  0.86105040     0.12300
C2040       C  0.76190464  0.51695498  0.91297798    -0.12000
H2041       H  0.72775608  0.52070344  0.95098480     0.12600
C2042       C  0.72027358  0.58686079  0.89949070    -0.22900
H2043       H  0.75640103  0.58475517  0.86443657     0.08300
C2044       C  0.76850620  0.54250643  0.83194688     0.04600
C2045       C  0.78562460  0.54115596  0.81041493    -0.20100
C2046       C  0.81237618  0.55144464  0.81727066    -0.12400
C2047       C  0.82221417  0.56356516  0.84664378     0.13300
C2048       C  0.80510337  0.56540963  0.86785065    -0.22800
C2049       C  0.73980754  0.53034685  0.82388990    -0.05900
H2050       H  0.77802773  0.53191765  0.78800113     0.14800
C2051       C  0.85003516  0.57340503  0.85738627    -0.16100
H2052       H  0.81248235  0.57435861  0.89045376     0.09200
H2053       H  0.71189724  0.58335857  0.87558997     0.07000
H2054       H  0.73604470  0.60769322  0.90151812     0.08200
H2055       H  0.70423980  0.58316395  0.91574530     0.07300
H2056       H  0.78354240  0.52787941  0.91626769     0.02100
H2057       H  0.75689219  0.50491619  0.89149590     0.02600
H2058       H  0.75296014  0.50352061  0.93311926     0.06100
H2059       H  0.73531039  0.52117008  0.80042395     0.05100
H2060       H  0.73419479  0.54554339  0.82400620    -0.00700
H2061       H  0.72769725  0.51498013  0.84121275     0.00800
H2062       H  0.86026152  0.59489206  0.86098375     0.04500
H2063       H  0.86168540  0.56899593  0.84101678     0.06400
H2064       H  0.84966910  0.56393668  0.87986431     0.07300
C2065       C  0.55440385  0.10573632  0.83636466    -0.22300
C2066       C  0.56574304  0.12466796  0.85981713     0.09600
C2067       C  0.59326615  0.14127671  0.86093382     0.10000
C2068       C  0.60893859  0.13838561  0.83858456    -0.17300
C2069       C  0.59773953  0.11884744  0.81554556    -0.27700
C2070       C  0.56998218  0.10256002  0.81417929     0.18400
C2071       C  0.54849118  0.12483083  0.88467437     0.12300
C2072       C  0.60603777  0.16186156  0.88586438    -0.12000
H2073       H  0.63008736  0.15115394  0.83945000     0.12600
C2074       C  0.55647974  0.08224821  0.78903810    -0.22900
H2075       H  0.53321454  0.09304572  0.83582659     0.08300
C2076       C  0.53417607  0.13775193  0.88126507     0.04600
C2077       C  0.51709375  0.13592689  0.90521310    -0.20100
C2078       C  0.51340671  0.12074243  0.93197078    -0.12400
C2079       C  0.52796466  0.10785275  0.93520011     0.13300
C2080       C  0.54545503  0.11033909  0.91162334    -0.22800
C2081       C  0.53672471  0.15312659  0.85224827    -0.05900
H2082       H  0.50598292  0.14574584  0.90260616     0.14800
C2083       C  0.52554496  0.09160247  0.96343605    -0.16100
H2084       H  0.55650337  0.10041493  0.91384794     0.09200
H2085       H  0.53474133  0.07259594  0.79055170     0.07000
H2086       H  0.56156130  0.06674976  0.79137537     0.08200
H2087       H  0.56254269  0.09158132  0.76573053     0.07300
H2088       H  0.60146977  0.15247964  0.90919639     0.02100
H2089       H  0.59852211  0.17556203  0.88451121     0.02600
H2090       H  0.62775119  0.17335904  0.88324349     0.06100
H2091       H  0.52422227  0.16208740  0.85333256     0.05100
H2092       H  0.53058894  0.14003157  0.83161898    -0.00700
H2093       H  0.55746858  0.16902644  0.84927707     0.00800
H2094       H  0.50564831  0.07389873  0.96433825     0.04500
H2095       H  0.52925221  0.10329574  0.98497271     0.06400
H2096       H  0.53990760  0.08481630  0.96285910     0.07300
C2097       C  0.55849672  0.13570315  0.58321035    -0.22300
C2098       C  0.54957790  0.12186439  0.61119302     0.09600
C2099       C  0.52239831  0.10652804  0.61714030     0.10000
C2100       C  0.50457830  0.10534667  0.59471883    -0.17300
C2101       C  0.51338644  0.11913535  0.56653705    -0.27700
C2102       C  0.54077817  0.13428742  0.56048982     0.18400
C2103       C  0.56900968  0.12294998  0.63361539     0.12300
C2104       C  0.51227194  0.09119037  0.64696180    -0.12000
H2105       H  0.48364337  0.09356483  0.59916190     0.12600
C2106       C  0.55225492  0.14813764  0.53001383    -0.22900
H2107       H  0.57945623  0.14711729  0.57873046     0.08300
C2108       C  0.57888514  0.10590312  0.63100968     0.04600
C2109       C  0.59592992  0.10641095  0.65400174    -0.20100
C2110       C  0.60307507  0.12331959  0.67966076    -0.12400
C2111       C  0.59304551  0.14040323  0.68227477     0.13300
C2112       C  0.57650200  0.14030138  0.65877319    -0.22800
C2113       C  0.57089065  0.08672692  0.60445979    -0.05900
H2114       H  0.60330685  0.09313861  0.65231048     0.14800
C2115       C  0.59772630  0.15768618  0.71018613    -0.16100
H2116       H  0.56846162  0.15306537  0.66073921     0.09200
H2117       H  0.56508090  0.14129207  0.52020440     0.07000
H2118       H  0.56433244  0.16953534  0.53415663     0.08200
H2119       H  0.53739447  0.14452806  0.51200519     0.07300
H2120       H  0.51957086  0.10470878  0.66720484     0.02100
H2121       H  0.51920171  0.07705161  0.64903481     0.02600
H2122       H  0.49044947  0.08004616  0.64776509     0.06100
H2123       H  0.58027534  0.07465183  0.60620378     0.05100
H2124       H  0.57683580  0.09743055  0.58196397    -0.00700
H2125       H  0.54924634  0.07335507  0.60461382     0.00800
H2126       H  0.60831734  0.17849019  0.70276330     0.04500
H2127       H  0.60912318  0.15529432  0.72900495     0.06400
H2128       H  0.57852078  0.15290397  0.72037402     0.07300
C2129       C  0.78777552  0.21354283  0.91561581    -0.22300
C2130       C  0.77848015  0.22209392  0.89096115     0.09600
C2131       C  0.78619445  0.24873552  0.88871625     0.10000
C2132       C  0.80335193  0.26637786  0.91112269    -0.17300
C2133       C  0.81281830  0.25795024  0.93583959    -0.27700
C2134       C  0.80454726  0.23104688  0.93843941     0.18400
C2135       C  0.76022841  0.20276483  0.86800845     0.12300
C2136       C  0.77623727  0.25847554  0.86272341    -0.12000
H2137       H  0.80939711  0.28690002  0.90940132     0.12600
C2138       C  0.81173712  0.21977317  0.96560233    -0.22900
H2139       H  0.78139196  0.19294203  0.91744209     0.08300
C2140       C  0.76959915  0.19583849  0.84169269     0.04600
C2141       C  0.75157213  0.17842662  0.81972565    -0.20100
C2142       C  0.72442392  0.16796210  0.82344423    -0.12400
C2143       C  0.71501944  0.17409032  0.85059946     0.13300
C2144       C  0.73312226  0.19164070  0.87239023    -0.22800
C2145       C  0.79862627  0.20734100  0.83648884    -0.05900
H2146       H  0.75875621  0.17372869  0.79894834     0.14800
C2147       C  0.68616627  0.16208006  0.85780868    -0.16100
H2148       H  0.72605857  0.19675247  0.89295730     0.09200
H2149       H  0.82313346  0.21086465  0.95710014     0.07000
H2150       H  0.79350449  0.20434927  0.97697338     0.08200
H2151       H  0.82341546  0.23436029  0.98375712     0.07300
H2152       H  0.75447407  0.24855471  0.86380845     0.02100
H2153       H  0.78208432  0.25426309  0.83988251     0.02600
H2154       H  0.78430962  0.27989945  0.86432164     0.06100
H2155       H  0.80264118  0.20003929  0.81459232     0.05100
H2156       H  0.80719948  0.20200886  0.85616943    -0.00700
H2157       H  0.80849114  0.22897471  0.83496317     0.00800
H2158       H  0.68196182  0.15255295  0.88105420     0.04500
H2159       H  0.67321191  0.14684510  0.84087628     0.06400
H2160       H  0.68097798  0.17759225  0.85826450     0.07300
C2161       C  0.73757982  0.19489563  0.63345723    -0.22300
C2162       C  0.76458999  0.20665343  0.63918325     0.09600
C2163       C  0.77355949  0.20022414  0.66632034     0.10000
C2164       C  0.75513794  0.18248942  0.68767691    -0.17300
C2165       C  0.72806504  0.17127639  0.68242466    -0.27700
C2166       C  0.71912477  0.17704961  0.65461960     0.18400
C2167       C  0.78305322  0.22594532  0.61650992     0.12300
C2168       C  0.80250353  0.21229843  0.67280124    -0.12000
H2169       H  0.76186377  0.17792590  0.70898075     0.12600
C2170       C  0.69041169  0.16431611  0.64611797    -0.22900
H2171       H  0.73087567  0.19965930  0.61227531     0.08300
C2172       C  0.79125512  0.21808826  0.58997121     0.04600
C2173       C  0.80790372  0.23703125  0.56841511    -0.20100
C2174       C  0.81609467  0.26357313  0.57253486    -0.12400
C2175       C  0.80803503  0.27143902  0.59943446     0.13300
C2176       C  0.79168335  0.25244465  0.62119930    -0.22800
C2177       C  0.78216293  0.18970461  0.58427064    -0.05900
H2178       H  0.81391814  0.23097457  0.54773340     0.14800
C2179       C  0.81694787  0.29974332  0.60571279    -0.16100
H2180       H  0.78525178  0.25818188  0.64179185     0.09200
H2181       H  0.68700642  0.15433276  0.62324995     0.07000
H2182       H  0.68480143  0.17947389  0.64423980     0.08200
H2183       H  0.67721960  0.14938421  0.66318443     0.07300
H2184       H  0.81188925  0.23388822  0.67434167     0.02100
H2185       H  0.81187589  0.20733389  0.65373150     0.02600
H2186       H  0.80614347  0.20512025  0.69507246     0.06100
H2187       H  0.79043167  0.18693866  0.56235632     0.05100
H2188       H  0.76039797  0.17824072  0.58244037    -0.00700
H2189       H  0.78848779  0.18194592  0.60384416     0.00800
H2190       H  0.81020101  0.30236297  0.62885193     0.04500
H2191       H  0.80875769  0.30718650  0.58790843     0.06400
H2192       H  0.83875370  0.31165229  0.60535165     0.07300
C2193       C  0.87272415  0.41030498  0.88264719    -0.22300
C2194       C  0.85217844  0.41534064  0.88608857     0.09600
C2195       C  0.83353964  0.40294787  0.90998650     0.10000
C2196       C  0.83650853  0.38646203  0.93086617    -0.17300
C2197       C  0.85769412  0.38217932  0.92824167    -0.27700
C2198       C  0.87558103  0.39361184  0.90316890     0.18400
C2199       C  0.85118340  0.43423074  0.86465406     0.12300
C2200       C  0.81102078  0.40770596  0.91389269    -0.12000
H2201       H  0.82277878  0.37763489  0.94999824     0.12600
C2202       C  0.89738349  0.38815026  0.89671526    -0.22900
H2203       H  0.88666364  0.41952838  0.86376635     0.08300
C2204       C  0.86822563  0.46135486  0.86864634     0.04600
C2205       C  0.86889134  0.47852389  0.84584517    -0.20100
C2206       C  0.85278861  0.46919890  0.81936501    -0.12400
C2207       C  0.83500235  0.44202610  0.81589396     0.13300
C2208       C  0.83440118  0.42485339  0.83876724    -0.22800
C2209       C  0.88585398  0.47212543  0.89679303    -0.05900
H2210       H  0.88241626  0.49933269  0.84833927     0.14800
C2211       C  0.81745718  0.43029329  0.78780920    -0.16100
H2212       H  0.82143370  0.40394210  0.83585350     0.09200
H2213       H  0.91672231  0.40638537  0.89953570     0.07000
H2214       H  0.89565299  0.38102566  0.87240483     0.08200
H2215       H  0.89668132  0.37286375  0.91206177     0.07300
H2216       H  0.79856944  0.40127148  0.89262535     0.02100
H2217       H  0.81873158  0.42887486  0.91773136     0.02600
H2218       H  0.79845140  0.39676643  0.93407943     0.06100
H2219       H  0.89755486  0.49384242  0.89650889     0.05100
H2220       H  0.89975665  0.46479628  0.89743354    -0.00700
H2221       H  0.87375491  0.46587872  0.91831206     0.00800
H2222       H  0.82198913  0.41635761  0.77619511     0.04500
H2223       H  0.81984506  0.44498683  0.77023186     0.06400
H2224       H  0.79659332  0.41952949  0.79537201     0.07300
C2225       C  0.88317575  0.41448724  0.61612500    -0.22300
C2226       C  0.86502989  0.42284816  0.61267571     0.09600
C2227       C  0.84736619  0.41369780  0.58733943     0.10000
C2228       C  0.84863014  0.39677856  0.56553117    -0.17300
C2229       C  0.86709374  0.38867072  0.56852930    -0.27700
C2230       C  0.88411727  0.39707642  0.59476956     0.18400
C2231       C  0.86440687  0.44070249  0.63631779     0.12300
C2232       C  0.82724546  0.42186626  0.58333696    -0.12000
H2233       H  0.83545016  0.39025454  0.54565407     0.12600
C2234       C  0.90262090  0.38729429  0.60196850    -0.22900
H2235       H  0.89630958  0.42115067  0.63605846     0.08300
C2236       C  0.84967239  0.43100411  0.66396757     0.04600
C2237       C  0.84966913  0.44861876  0.68575248    -0.20100
C2238       C  0.86426635  0.47573065  0.68062932    -0.12400
C2239       C  0.87849795  0.48540124  0.65243312     0.13300
C2240       C  0.87853557  0.46771347  0.63076947    -0.22800
C2241       C  0.83416331  0.40207856  0.67055453    -0.05900
H2242       H  0.83882034  0.44123352  0.70733181     0.14800
C2243       C  0.89311916  0.51402147  0.64386230    -0.16100
H2244       H  0.88948620  0.47501896  0.60923758     0.09200
H2245       H  0.89887249  0.37920513  0.62599028     0.07000
H2246       H  0.92325776  0.40375185  0.60054024     0.08200
H2247       H  0.90014312  0.37139053  0.58633280     0.07300
H2248       H  0.83727771  0.44344582  0.58083004     0.02100
H2249       H  0.81414810  0.41575360  0.60399759     0.02600
H2250       H  0.81484594  0.41283910  0.56235129     0.06100
H2251       H  0.82368176  0.39778036  0.69320167     0.05100
H2252       H  0.84758753  0.39417266  0.67139187    -0.00700
H2253       H  0.81933319  0.39189953  0.65191306     0.00800
H2254       H  0.91438788  0.52103331  0.64141966     0.04500
H2255       H  0.89071424  0.52650325  0.66110204     0.06400
H2256       H  0.88562195  0.51665519  0.62122405     0.07300
C2257       C  0.63207444  0.97059867  0.89726270    -0.22300
C2258       C  0.61851699  0.98174463  0.88370266     0.09600
C2259       C  0.59265623  0.97353422  0.89313547     0.10000
C2260       C  0.58096639  0.95453752  0.91636838    -0.17300
C2261       C  0.59442082  0.94337532  0.93058829    -0.27700
C2262       C  0.62036142  0.95139992  0.92060365     0.18400
C2263       C  0.63139450  0.00212000  0.85959125     0.12300
C2264       C  0.57747939  0.98511492  0.87895989    -0.12000
H2265       H  0.56106622  0.94841653  0.92347783     0.12600
C2266       C  0.63614322  0.94049458  0.93470568    -0.22900
H2267       H  0.65193875  0.97708924  0.88961995     0.08300
C2268       C  0.64764795  0.02871986  0.86762128     0.04600
C2269       C  0.65554454  0.04783451  0.84428996    -0.20100
C2270       C  0.64686189  0.04077012  0.81349630    -0.12400
C2271       C  0.63178206  0.01400514  0.80522074     0.13300
C2272       C  0.62435768  0.99500670  0.82844775    -0.22800
C2273       C  0.65543591  0.03691033  0.90097686    -0.05900
H2274       H  0.66717156  0.06837464  0.85040430     0.14800
C2275       C  0.62292780  0.00477190  0.77227725    -0.16100
H2276       H  0.61195085  0.97449631  0.82246870     0.09200
H2277       H  0.63802407  0.94395338  0.96024476     0.07000
H2278       H  0.65629514  0.94988952  0.92483684     0.08200
H2279       H  0.62644779  0.91921694  0.92982893     0.07300
H2280       H  0.57484376  0.98094904  0.85358123     0.02100
H2281       H  0.58831703  0.00661068  0.88266304     0.02600
H2282       H  0.55766998  0.97685867  0.88951601     0.06100
H2283       H  0.66791129  0.05849031  0.90325469     0.05100
H2284       H  0.66669962  0.02802168  0.91005767    -0.00700
H2285       H  0.63757625  0.03029821  0.91543458     0.00800
H2286       H  0.62991394  0.99138552  0.76514126     0.04500
H2287       H  0.63067622  0.02090900  0.75506369     0.06400
H2288       H  0.60111857  0.99399748  0.77115643     0.07300
C2289       C  0.63867296  0.98265067  0.58733196    -0.22300
C2290       C  0.62624561  0.98126546  0.61565448     0.09600
C2291       C  0.60146592  0.95915690  0.62223879     0.10000
C2292       C  0.58915261  0.93945753  0.59972580    -0.17300
C2293       C  0.60072047  0.94154524  0.57055003    -0.27700
C2294       C  0.62616539  0.96313018  0.56450789     0.18400
C2295       C  0.63727717  0.00469685  0.63591275     0.12300
C2296       C  0.58741378  0.95697128  0.65237939    -0.12000
H2297       H  0.56986695  0.92281711  0.60442877     0.12600
C2298       C  0.64003167  0.96722287  0.53373285    -0.22900
H2299       H  0.65761101  0.99980256  0.58230044     0.08300
C2300       C  0.65318692  0.00797075  0.66202715     0.04600
C2301       C  0.65991230  0.02891017  0.68262602    -0.20100
C2302       C  0.65112266  0.04658778  0.67740235    -0.12400
C2303       C  0.63699126  0.04434778  0.64979290     0.13300
C2304       C  0.62998188  0.02325656  0.62966032    -0.22800
C2305       C  0.66256463  0.98913109  0.66833031    -0.05900
H2306       H  0.67094814  0.03072682  0.70361903     0.14800
C2307       C  0.62913694  0.06390705  0.64066577    -0.16100
H2308       H  0.61823996  0.02096159  0.60915000     0.09200
H2309       H  0.65897533  0.96797035  0.53757601     0.07000
H2310       H  0.64411328  0.98606203  0.52337834     0.08200
H2311       H  0.62853721  0.95167652  0.51647774     0.07300
H2312       H  0.58389628  0.97355586  0.65452503     0.02100
H2313       H  0.59949104  0.95733752  0.67239869     0.02600
H2314       H  0.56809145  0.93850534  0.65361307     0.06100
H2315       H  0.67489843  0.99452623  0.68967904     0.05100
H2316       H  0.67450517  0.98919275  0.64834723    -0.00700
H2317       H  0.64552728  0.96906153  0.67148045     0.00800
H2318       H  0.63665958  0.07148162  0.61693990     0.04500
H2319       H  0.63730325  0.08105166  0.65643597     0.06400
H2320       H  0.60737087  0.05421677  0.64044559     0.07300
C2321       C  0.42629926  0.86925187  0.83603535    -0.22300
C2322       C  0.41554329  0.85863823  0.86518078     0.09600
C2323       C  0.38844855  0.84812136  0.87046921     0.10000
C2324       C  0.37276259  0.84918133  0.84658695    -0.17300
C2325       C  0.38371886  0.86087208  0.81778381    -0.27700
C2326       C  0.41074326  0.87047571  0.81216580     0.18400
C2327       C  0.43347375  0.86018767  0.89024099     0.12300
C2328       C  0.37622792  0.83600759  0.90135032    -0.12000
H2329       H  0.35201340  0.84156087  0.85072924     0.12600
C2330       C  0.42319781  0.88144431  0.78092108    -0.22900
H2331       H  0.44711534  0.87702712  0.83218409     0.08300
C2332       C  0.44203082  0.84204800  0.89244955     0.04600
C2333       C  0.46032619  0.84542370  0.91556285    -0.20100
C2334       C  0.47037820  0.86662655  0.93647642    -0.12400
C2335       C  0.46121462  0.88450961  0.93449726     0.13300
C2336       C  0.44294970  0.88103208  0.91130170    -0.22800
C2337       C  0.43175530  0.81912897  0.87048744    -0.05900
H2338       H  0.46704695  0.83155538  0.91704653     0.14800
C2339       C  0.46985957  0.90686126  0.95710940    -0.16100
H2340       H  0.43608942  0.89477885  0.90936318     0.09200
H2341       H  0.44397692  0.88626416  0.78018353     0.07000
H2342       H  0.42310973  0.89971806  0.77598033     0.08200
H2343       H  0.41226684  0.86685345  0.76233690     0.07300
H2344       H  0.38540587  0.85079791  0.92016543     0.02100
H2345       H  0.37930503  0.81942084  0.90631759     0.02600
H2346       H  0.35474797  0.82847630  0.90148810     0.06100
H2347       H  0.44024190  0.80661175  0.87562006     0.05100
H2348       H  0.43686726  0.82621609  0.84612309    -0.00700
H2349       H  0.41005369  0.80691959  0.87265441     0.00800
H2350       H  0.49113208  0.92116862  0.95419125     0.04500
H2351       H  0.46585529  0.89929171  0.98137096     0.06400
H2352       H  0.45921254  0.91754559  0.95324245     0.07300
C2353       C  0.40873795  0.87880876  0.63405861    -0.22300
C2354       C  0.41941286  0.86306476  0.64092280     0.09600
C2355       C  0.41193902  0.84798710  0.66838996     0.10000
C2356       C  0.39397641  0.84914195  0.68863119    -0.17300
C2357       C  0.38337109  0.86509704  0.68207136    -0.27700
C2358       C  0.39045566  0.87974189  0.65400455     0.18400
C2359       C  0.43815067  0.86243800  0.61869835     0.12300
C2360       C  0.42317666  0.83096359  0.67647640    -0.12000
H2361       H  0.38871657  0.83803305  0.71014685     0.12600
C2362       C  0.37851435  0.89567916  0.64356227    -0.22900
H2363       H  0.41435926  0.89007399  0.61264260     0.08300
C2364       C  0.42942768  0.84455041  0.59369850     0.04600
C2365       C  0.44787502  0.84527045  0.57255336    -0.20100
C2366       C  0.47476417  0.86379113  0.57563298    -0.12400
C2367       C  0.48349728  0.88119870  0.60135561     0.13300
C2368       C  0.46501112  0.88038585  0.62243925    -0.22800
C2369       C  0.40060180  0.82522215  0.58893861    -0.05900
H2370       H  0.44115674  0.83210075  0.55275332     0.14800
C2371       C  0.51209908  0.90048992  0.60769649    -0.16100
H2372       H  0.47157901  0.89387572  0.64193751     0.09200
H2373       H  0.37019244  0.88943703  0.61978165     0.07000
H2374       H  0.39392641  0.91671895  0.64289087     0.08200
H2375       H  0.36220638  0.89319053  0.65858359     0.07300
H2376       H  0.44487980  0.84319570  0.67862717     0.02100
H2377       H  0.41821890  0.81613713  0.65794195     0.02600
H2378       H  0.41527537  0.82049503  0.69888461     0.06100
H2379       H  0.39709632  0.81274921  0.56812928     0.05100
H2380       H  0.38983162  0.83583564  0.58562433    -0.00700
H2381       H  0.39253910  0.81226822  0.60959602     0.00800
H2382       H  0.51585036  0.92074768  0.60577889     0.04500
H2383       H  0.52538530  0.89822438  0.59159846     0.06400
H2384       H  0.51718514  0.89745358  0.63165021     0.07300
C2385       C  0.10950312  0.52019003  0.87054494    -0.22300
C2386       C  0.12648718  0.54711960  0.86649490     0.09600
C2387       C  0.14437737  0.55620990  0.84136298     0.10000
C2388       C  0.14413425  0.53808773  0.82009595    -0.17300
C2389       C  0.12618691  0.51117947  0.82328452    -0.27700
C2390       C  0.10913238  0.50208274  0.84935296     0.18400
C2391       C  0.12476810  0.56527848  0.88875412     0.12300
C2392       C  0.16292859  0.58502593  0.83631809    -0.12000
H2393       H  0.15709752  0.54503509  0.80007029     0.12600
C2394       C  0.09051397  0.47345263  0.85578893    -0.22900
H2395       H  0.09620058  0.51325804  0.89028006     0.08300
C2396       C  0.10342365  0.56963417  0.88811123     0.04600
C2397       C  0.10181251  0.58578461  0.91078052    -0.20100
C2398       C  0.12103094  0.59768948  0.93411131    -0.12400
C2399       C  0.14232184  0.59304710  0.93488507     0.13300
C2400       C  0.14404268  0.57719962  0.91188838    -0.22800
C2401       C  0.08250703  0.55748004  0.86330186    -0.05900
H2402       H  0.08549879  0.58923997  0.91022915     0.14800
C2403       C  0.16282468  0.60309006  0.96035046    -0.16100
H2404       H  0.16012301  0.57338428  0.91261180     0.09200
H2405       H  0.06990995  0.46909960  0.85448648     0.07000
H2406       H  0.09422224  0.46860700  0.87954846     0.08200
H2407       H  0.09292855  0.46049300  0.83934045     0.07300
H2408       H  0.17635296  0.59347645  0.85659960     0.02100
H2409       H  0.15155235  0.59507738  0.83352781     0.02600
H2410       H  0.17512420  0.58882241  0.81512515     0.06100
H2411       H  0.06761757  0.56348289  0.86571790     0.05100
H2412       H  0.07215545  0.53583913  0.86496998    -0.00700
H2413       H  0.09166215  0.56367290  0.83992065     0.00800
H2414       H  0.16349829  0.58640390  0.97101475     0.04500
H2415       H  0.15890084  0.61303091  0.97954129     0.06400
H2416       H  0.18239902  0.61686827  0.95024818     0.07300
C2417       C  0.10679764  0.51993432  0.63248016    -0.22300
C2418       C  0.12361646  0.54687514  0.63655007     0.09600
C2419       C  0.14071722  0.55622562  0.66242685     0.10000
C2420       C  0.13989654  0.53831764  0.68442053    -0.17300
C2421       C  0.12232226  0.51133360  0.68102180    -0.27700
C2422       C  0.10619267  0.50195964  0.65411134     0.18400
C2423       C  0.12246969  0.56489516  0.61369469     0.12300
C2424       C  0.15962242  0.58506053  0.66685459    -0.12000
H2425       H  0.15243330  0.54545863  0.70484955     0.12600
C2426       C  0.08873260  0.47325263  0.64685509    -0.22900
H2427       H  0.09409236  0.51288371  0.61217276     0.08300
C2428       C  0.13571603  0.57036011  0.58493061     0.04600
C2429       C  0.13328412  0.58692625  0.56366235    -0.20100
C2430       C  0.11772464  0.59794088  0.57043124    -0.12400
C2431       C  0.10495778  0.59293206  0.59966162     0.13300
C2432       C  0.10732526  0.57622382  0.62079560    -0.22800
C2433       C  0.15228038  0.55862483  0.57668060    -0.05900
H2434       H  0.14310041  0.59083274  0.54129402     0.14800
C2435       C  0.08949717  0.60544152  0.60988363    -0.16100
H2436       H  0.09740242  0.57209935  0.64311310     0.09200
H2437       H  0.09372126  0.46914831  0.62340716     0.07000
H2438       H  0.06784227  0.46806189  0.64681695     0.08200
H2439       H  0.09106937  0.46030463  0.66344966     0.07300
H2440       H  0.14860240  0.59551628  0.66895999     0.02100
H2441       H  0.17306637  0.59291814  0.64653860     0.02600
H2442       H  0.17173641  0.58904920  0.68820746     0.06100
H2443       H  0.16145292  0.56510377  0.55333351     0.05100
H2444       H  0.13991036  0.53696279  0.57643272    -0.00700
H2445       H  0.16821912  0.56463862  0.59415163     0.00800
H2446       H  0.06863411  0.59007884  0.61358912     0.04500
H2447       H  0.09022241  0.61989580  0.59301736     0.06400
H2448       H  0.09768472  0.61601125  0.63218092     0.07300
C2449       C  0.00020705  0.35255942  0.83445426    -0.22300
C2450       C  0.00357103  0.36390943  0.86399435     0.09600
C2451       C  0.02783348  0.38626622  0.87184449     0.10000
C2452       C  0.04776764  0.39751383  0.84937235    -0.17300
C2453       C  0.04391568  0.38707297  0.81923652    -0.27700
C2454       C  0.02001280  0.36397411  0.81179694     0.18400
C2455       C  0.98058659  0.35405618  0.88499300     0.12300
C2456       C  0.03224867  0.39897871  0.90339144    -0.12000
H2457       H  0.06611272  0.41514512  0.85495671     0.12600
C2458       C  0.01403486  0.35170523  0.77982761    -0.22900
H2459       H  0.98148832  0.33544073  0.82852916     0.08300
C2460       C  0.96133908  0.36100589  0.88003300     0.04600
C2461       C  0.94104876  0.35330893  0.90171812    -0.20100
C2462       C  0.93973575  0.33929959  0.92867092    -0.12400
C2463       C  0.95877683  0.33185687  0.93334689     0.13300
C2464       C  0.97887507  0.33917188  0.91120946    -0.22800
C2465       C  0.96282251  0.37756338  0.85258337    -0.05900
H2466       H  0.92656414  0.35902722  0.89809867     0.14800
C2467       C  0.95901122  0.31765016  0.96236324    -0.16100
H2468       H  0.99387727  0.33409802  0.91487437     0.09200
H2469       H  0.99652946  0.35151699  0.77007823     0.07000
H2470       H  0.00971153  0.33124452  0.78164278     0.08200
H2471       H  0.03037897  0.36216568  0.76308755     0.07300
H2472       H  0.03025312  0.38496301  0.92181703     0.02100
H2473       H  0.01756824  0.40504252  0.90740547     0.02600
H2474       H  0.05217040  0.41661321  0.90539517     0.06100
H2475       H  0.94655135  0.38177844  0.85274730     0.05100
H2476       H  0.96152901  0.36724376  0.83051856    -0.00700
H2477       H  0.98169435  0.39651951  0.85320758     0.00800
H2478       H  0.97599453  0.31451907  0.96272023     0.04500
H2479       H  0.94080444  0.29816718  0.96352524     0.06400
H2480       H  0.96040031  0.32923982  0.98333670     0.07300
C2481       C  0.97452951  0.33743911  0.59569980    -0.22300
C2482       C  0.98560236  0.36230695  0.60915608     0.09600
C2483       C  0.97728810  0.37957078  0.59947949     0.10000
C2484       C  0.95701762  0.37103926  0.57764020    -0.17300
C2485       C  0.94540453  0.34596833  0.56414446    -0.27700
C2486       C  0.95500621  0.32920963  0.57259965     0.18400
C2487       C  0.00530035  0.36988655  0.63417323     0.12300
C2488       C  0.98997663  0.40711304  0.61198236    -0.12000
H2489       H  0.95024735  0.38422984  0.57100489     0.12600
C2490       C  0.94650681  0.30330631  0.55711258    -0.22900
H2491       H  0.98153136  0.32454597  0.60289907     0.08300
C2492       C  0.99782739  0.36797528  0.66567085     0.04600
C2493       C  0.01731743  0.37864900  0.68865181    -0.20100
C2494       C  0.04402609  0.39095435  0.68083513    -0.12400
C2495       C  0.05153718  0.39201812  0.64932123     0.13300
C2496       C  0.03192654  0.38128846  0.62629963    -0.22800
C2497       C  0.96930684  0.35509065  0.67493294    -0.05900
H2498       H  0.01173663  0.37795013  0.71285562     0.14800
C2499       C  0.07983993  0.40542647  0.63894377    -0.16100
H2500       H  0.03746693  0.38279678  0.60197079     0.09200
H2501       H  0.93613576  0.28725458  0.57428443     0.07000
H2502       H  0.96414910  0.30311363  0.54864182     0.08200
H2503       H  0.93375714  0.29928992  0.53655081     0.07300
H2504       H  0.01128587  0.41780798  0.60641726     0.02100
H2505       H  0.98749236  0.40684250  0.63761813     0.02600
H2506       H  0.98123292  0.41809044  0.60159868     0.06100
H2507       H  0.96695797  0.35512811  0.70060850     0.05100
H2508       H  0.95866902  0.33446925  0.66682472    -0.00700
H2509       H  0.96012290  0.36553734  0.66430948     0.00800
H2510       H  0.08361886  0.39102781  0.62719116     0.04500
H2511       H  0.09406879  0.41440362  0.65834286     0.06400
H2512       H  0.08371230  0.42121254  0.62214607     0.07300
C2513       C  0.32307070  0.35215046  0.89063169    -0.22300
C2514       C  0.34918382  0.35927741  0.88474937     0.09600
C2515       C  0.36965030  0.37976583  0.90182864     0.10000
C2516       C  0.36357023  0.39252184  0.92478129    -0.17300
C2517       C  0.33742791  0.38574758  0.93099489    -0.27700
C2518       C  0.31682833  0.36509423  0.91354649     0.18400
C2519       C  0.35535592  0.34669581  0.85906968     0.12300
C2520       C  0.39808109  0.38865461  0.89532322    -0.12000
H2521       H  0.37960121  0.40810775  0.93779789     0.12600
C2522       C  0.28835692  0.35681163  0.91816816    -0.22900
H2523       H  0.30757343  0.33660053  0.87693530     0.08300
C2524       C  0.36117891  0.32678490  0.86468867     0.04600
C2525       C  0.37254975  0.31961420  0.84083562    -0.20100
C2526       C  0.37823279  0.33207816  0.81169963    -0.12400
C2527       C  0.37007285  0.35030142  0.80534188     0.13300
C2528       C  0.35897464  0.35754257  0.82926007    -0.22800
C2529       C  0.35612842  0.31375027  0.89608843    -0.05900
H2530       H  0.37834453  0.30533054  0.84549515     0.14800
C2531       C  0.37274311  0.36256272  0.77372548    -0.16100
H2532       H  0.35403809  0.37252052  0.82496279     0.09200
H2533       H  0.28204342  0.34900314  0.94208700     0.07000
H2534       H  0.27529697  0.34114179  0.90160858     0.08200
H2535       H  0.28557064  0.37371877  0.91427099     0.07300
H2536       H  0.40287548  0.39528325  0.87075744     0.02100
H2537       H  0.40174649  0.37233816  0.89930685     0.02600
H2538       H  0.41164896  0.40516457  0.91060875     0.06100
H2539       H  0.36181529  0.29859627  0.89654433     0.05100
H2540       H  0.33487356  0.30418763  0.90167764    -0.00700
H2541       H  0.36755577  0.32841656  0.91438160     0.00800
H2542       H  0.35326519  0.35907920  0.76606615     0.04500
H2543       H  0.37964730  0.35432943  0.75544531     0.06400
H2544       H  0.38663230  0.38398219  0.77521893     0.07300
C2545       C  0.35947001  0.38638477  0.61691763    -0.22300
C2546       C  0.35005214  0.35972528  0.61205346     0.09600
C2547       C  0.33260225  0.34657199  0.58722764     0.10000
C2548       C  0.32600525  0.36078947  0.56671039    -0.17300
C2549       C  0.33666007  0.38783911  0.57052868    -0.27700
C2550       C  0.35287237  0.40061744  0.59659366     0.18400
C2551       C  0.36024886  0.34666967  0.63223820     0.12300
C2552       C  0.32174293  0.31781887  0.58187256    -0.12000
H2553       H  0.31351937  0.35102667  0.54677655     0.12600
C2554       C  0.36334870  0.42909715  0.60387121    -0.22900
H2555       H  0.37251993  0.39627562  0.63640210     0.08300
C2556       C  0.38547903  0.35036136  0.62718322     0.04600
C2557       C  0.39612426  0.34089431  0.64917134    -0.20100
C2558       C  0.38228143  0.32807538  0.67628562    -0.12400
C2559       C  0.35640327  0.32324866  0.68059710     0.13300
C2560       C  0.34564922  0.33246177  0.65825864    -0.22800
C2561       C  0.40153004  0.36509010  0.59911755    -0.05900
H2562       H  0.41599743  0.34476514  0.64604824     0.14800
C2563       C  0.34020752  0.31019487  0.70924200    -0.16100
H2564       H  0.32627528  0.32974620  0.66199421     0.09200
H2565       H  0.38513955  0.44004385  0.60248081     0.07000
H2566       H  0.35744429  0.43091474  0.62786654     0.08200
H2567       H  0.35571050  0.43841008  0.58799477     0.07300
H2568       H  0.31022515  0.30658449  0.60253111     0.02100
H2569       H  0.33811530  0.31408509  0.57807132     0.02600
H2570       H  0.30861989  0.31060180  0.56117647     0.06100
H2571       H  0.42072683  0.36592966  0.59856139     0.05100
H2572       H  0.40551900  0.38547330  0.59950173    -0.00700
H2573       H  0.39060217  0.35526906  0.57750247     0.00800
H2574       H  0.33529212  0.32376273  0.72108039     0.04500
H2575       H  0.35027940  0.30442881  0.72642918     0.06400
H2576       H  0.32164067  0.29233325  0.70226590     0.07300
C2577       C  0.22161012  0.43898180  0.91263508    -0.22300
C2578       C  0.21873008  0.42470016  0.88551624     0.09600
C2579       C  0.23319804  0.41193617  0.88200073     0.10000
C2580       C  0.25095099  0.41450736  0.90548723    -0.17300
C2581       C  0.25444819  0.42954668  0.93226173    -0.27700
C2582       C  0.23875824  0.44105677  0.93642799     0.18400
C2583       C  0.20161104  0.42495549  0.86054144     0.12300
C2584       C  0.22985860  0.39564428  0.85358806    -0.12000
H2585       H  0.26257564  0.40525451  0.90263366     0.12600
C2586       C  0.23866852  0.45479478  0.96597091    -0.22900
H2587       H  0.21023260  0.44852758  0.91531726     0.08300
C2588       C  0.17399558  0.41153061  0.86353363     0.04600
C2589       C  0.15897743  0.41487946  0.84064206    -0.20100
C2590       C  0.17102041  0.43164528  0.81514760    -0.12400
C2591       C  0.19869469  0.44436594  0.81171390     0.13300
C2592       C  0.21358554  0.44087937  0.83455929    -0.22800
C2593       C  0.16042541  0.39368250  0.89079021    -0.05900
H2594       H  0.13777759  0.40481940  0.84301976     0.14800
C2595       C  0.21270648  0.46114218  0.78376716    -0.16100
H2596       H  0.23482395  0.45110667  0.83254640     0.09200
H2597       H  0.21822125  0.44575532  0.97482844     0.07000
H2598       H  0.24613627  0.47576275  0.96096538     0.08200
H2599       H  0.25047563  0.45334221  0.98504784     0.07300
H2600       H  0.23564786  0.40802405  0.83236243     0.02100
H2601       H  0.20898812  0.37979799  0.85145270     0.02600
H2602       H  0.24218608  0.38649974  0.85494644     0.06100
H2603       H  0.13870798  0.38417626  0.88905900     0.05100
H2604       H  0.16669323  0.40495044  0.91287882    -0.00700
H2605       H  0.16550827  0.37809984  0.89156199     0.00800
H2606       H  0.21100779  0.47888755  0.78364647     0.04500
H2607       H  0.20413570  0.44979799  0.76200709     0.06400
H2608       H  0.23399968  0.46780573  0.78397946     0.07300
C2609       C  0.24749494  0.45135886  0.61401262    -0.22300
C2610       C  0.22078925  0.43289405  0.61001334     0.09600
C2611       C  0.21274585  0.41487027  0.58520693     0.10000
C2612       C  0.23172818  0.41585642  0.56470601    -0.17300
C2613       C  0.25854408  0.43457270  0.56839321    -0.27700
C2614       C  0.26656561  0.45222185  0.59385792     0.18400
C2615       C  0.20182114  0.43232880  0.63292702     0.12300
C2616       C  0.18414298  0.39487926  0.58021491    -0.12000
H2617       H  0.22551336  0.40245613  0.54514118     0.12600
C2618       C  0.29498656  0.47154384  0.60133322    -0.22900
H2619       H  0.25355234  0.46486909  0.63346777     0.08300
C2620       C  0.19643009  0.41801483  0.66089561     0.04600
C2621       C  0.17962629  0.41931284  0.68293004    -0.20100
C2622       C  0.16834105  0.43482519  0.67771139    -0.12400
C2623       C  0.17301445  0.44842822  0.64913076     0.13300
C2624       C  0.18994070  0.44718177  0.62719894    -0.22800
C2625       C  0.20885165  0.40181669  0.66767281    -0.05900
H2626       H  0.17598680  0.40888231  0.70481283     0.14800
C2627       C  0.16004374  0.46385654  0.64065061    -0.16100
H2628       H  0.19395953  0.45791605  0.60549317     0.09200
H2629       H  0.29908937  0.46892986  0.62592462     0.07000
H2630       H  0.29889883  0.49178362  0.59833900     0.08200
H2631       H  0.30898408  0.46899258  0.58683462     0.07300
H2632       H  0.17289061  0.40492919  0.57627985     0.02100
H2633       H  0.17617870  0.38210360  0.60103445     0.02600
H2634       H  0.18120255  0.38228388  0.55969067     0.06100
H2635       H  0.20259541  0.39188486  0.69063518     0.05100
H2636       H  0.23058514  0.41453155  0.66792003    -0.00700
H2637       H  0.20310389  0.38659164  0.64945131     0.00800
H2638       H  0.17526166  0.48480810  0.63781086     0.04500
H2639       H  0.14555900  0.46228780  0.65815775     0.06400
H2640       H  0.14927795  0.45643055  0.61828120     0.07300
C2641       C  0.64050532  0.63413523  0.91583068    -0.22300
C2642       C  0.62866895  0.62097409  0.88800196     0.09600
C2643       C  0.62530335  0.59601405  0.88246928     0.10000
C2644       C  0.63268147  0.58424375  0.90554235    -0.17300
C2645       C  0.64358807  0.59693889  0.93385758    -0.27700
C2646       C  0.64796929  0.62239547  0.93894336     0.18400
C2647       C  0.61739350  0.63219938  0.86631990     0.12300
C2648       C  0.61310815  0.58142389  0.85264700    -0.12000
H2649       H  0.62934781  0.56473130  0.90180182     0.12600
C2650       C  0.65928176  0.63719809  0.96890229    -0.22900
H2651       H  0.64300864  0.65327014  0.92002998     0.08300
C2652       C  0.59250146  0.62920138  0.87208254     0.04600
C2653       C  0.58064620  0.63662695  0.84911947    -0.20100
C2654       C  0.59319480  0.64726708  0.82063383    -0.12400
C2655       C  0.61863381  0.65117243  0.81529735     0.13300
C2656       C  0.63043877  0.64370652  0.83836970    -0.22800
C2657       C  0.57809406  0.61740977  0.90210936    -0.05900
H2658       H  0.56119461  0.63362318  0.85314076     0.14800
C2659       C  0.63334509  0.66165518  0.78506589    -0.16100
H2660       H  0.64950725  0.64586510  0.83399369     0.09200
H2661       H  0.64489047  0.64146353  0.97991664     0.07000
H2662       H  0.67758034  0.65597101  0.96380054     0.08200
H2663       H  0.66409770  0.62629044  0.98602201     0.07300
H2664       H  0.62536848  0.59283938  0.83250817     0.02100
H2665       H  0.59305077  0.57835393  0.84993943     0.02600
H2666       H  0.61151926  0.56197606  0.85234042     0.06100
H2667       H  0.55867854  0.61609782  0.90265000     0.05100
H2668       H  0.58986981  0.62968884  0.92207661    -0.00700
H2669       H  0.57478302  0.59737408  0.90491802     0.00800
H2670       H  0.65216170  0.68007916  0.78965415     0.04500
H2671       H  0.62231542  0.66570574  0.76729020     0.06400
H2672       H  0.63775070  0.64713776  0.77487678     0.07300
C2673       C  0.65557364  0.62707601  0.61353516    -0.22300
C2674       C  0.63004658  0.62297688  0.61481652     0.09600
C2675       C  0.61065611  0.60490096  0.59432134     0.10000
C2676       C  0.61725266  0.59142570  0.57294145    -0.17300
C2677       C  0.64266597  0.59492148  0.57176379    -0.27700
C2678       C  0.66206924  0.61286544  0.59282794     0.18400
C2679       C  0.62279909  0.63509260  0.64011449     0.12300
C2680       C  0.58272314  0.59922847  0.59554045    -0.12000
H2681       H  0.60223132  0.57792512  0.55695963     0.12600
C2682       C  0.68918680  0.61661061  0.59583989    -0.22900
H2683       H  0.67021206  0.64056954  0.62989680     0.08300
C2684       C  0.61775296  0.62441178  0.67039031     0.04600
C2685       C  0.60598298  0.63268314  0.69222646    -0.20100
C2686       C  0.59870798  0.65111048  0.68454621    -0.12400
C2687       C  0.60500938  0.66288610  0.65460172     0.13300
C2688       C  0.61727170  0.65483993  0.63288103    -0.22800
C2689       C  0.62354703  0.60330394  0.67925171    -0.05900
H2690       H  0.60149350  0.62393184  0.71526117     0.14800
C2691       C  0.59773199  0.68253703  0.64377613    -0.16100
H2692       H  0.62112461  0.66289982  0.60949843     0.09200
H2693       H  0.69287626  0.61396335  0.62059237     0.07000
H2694       H  0.70407819  0.63674293  0.58847902     0.08200
H2695       H  0.69197312  0.60240427  0.58232116     0.07300
H2696       H  0.58223120  0.61724035  0.59016787     0.02100
H2697       H  0.57442756  0.59213755  0.61913603     0.02600
H2698       H  0.56989565  0.58400068  0.57840852     0.06100
H2699       H  0.61778308  0.59670303  0.70369372     0.05100
H2700       H  0.64492096  0.61081180  0.67701532    -0.00700
H2701       H  0.61251424  0.58609113  0.66375854     0.00800
H2702       H  0.61587608  0.70119288  0.63781699     0.04500
H2703       H  0.58663727  0.68676007  0.66117249     0.06400
H2704       H  0.58521542  0.67498857  0.62261220     0.07300
C2705       C  0.44808148  0.59577232  0.62989931    -0.22300
C2706       C  0.43531890  0.56864397  0.63424886     0.09600
C2707       C  0.44102723  0.55835004  0.66071361     0.10000
C2708       C  0.45972094  0.57548862  0.68217391    -0.17300
C2709       C  0.47261278  0.60267816  0.67797600    -0.27700
C2710       C  0.46676214  0.61303166  0.65145635     0.18400
C2711       C  0.41792315  0.55113054  0.60948163     0.12300
C2712       C  0.42746340  0.52926845  0.66619455    -0.12000
H2713       H  0.46414264  0.56761306  0.70255930     0.12600
C2714       C  0.48052560  0.64189229  0.64435565    -0.22900
H2715       H  0.44388919  0.60347805  0.60917671     0.08300
C2716       C  0.39062566  0.54131651  0.60939435     0.04600
C2717       C  0.37484758  0.52278908  0.58678472    -0.20100
C2718       C  0.38590989  0.51399454  0.56436983    -0.12400
C2719       C  0.41357159  0.52495746  0.56375324     0.13300
C2720       C  0.42913719  0.54327299  0.58646277    -0.22800
C2721       C  0.37829052  0.55037498  0.63317785    -0.05900
H2722       H  0.35379126  0.51486062  0.58690410     0.14800
C2723       C  0.42705529  0.51820547  0.53873457    -0.16100
H2724       H  0.45022748  0.55130983  0.58659805     0.09200
H2725       H  0.46597354  0.64843112  0.64404539     0.07000
H2726       H  0.48998116  0.64561836  0.62108818     0.08200
H2727       H  0.49612677  0.65399752  0.66136660     0.07300
H2728       H  0.43173798  0.51974826  0.64668187     0.02100
H2729       H  0.40590474  0.52096367  0.66774766     0.02600
H2730       H  0.43411483  0.52456810  0.68819229     0.06100
H2731       H  0.35669668  0.54079643  0.62981557     0.05100
H2732       H  0.38690791  0.57185157  0.63112799    -0.00700
H2733       H  0.38201024  0.54570216  0.65700620     0.00800
H2734       H  0.42131144  0.52170290  0.51537390     0.04500
H2735       H  0.42171358  0.49746627  0.54086183     0.06400
H2736       H  0.44880059  0.53034245  0.54056049     0.07300
C2737       C  0.42767610  0.56003830  0.82640310    -0.22300
C2738       C  0.43044381  0.56766522  0.85769018     0.09600
C2739       C  0.45053380  0.59298430  0.86647339     0.10000
C2740       C  0.46795875  0.60994847  0.84373218    -0.17300
C2741       C  0.46590278  0.60186970  0.81264856    -0.27700
C2742       C  0.44508766  0.57686521  0.80367647     0.18400
C2743       C  0.41360404  0.54799846  0.88119108     0.12300
C2744       C  0.45389673  0.60179324  0.89992263    -0.12000
H2745       H  0.48386131  0.62916985  0.85042241     0.12600
C2746       C  0.44052739  0.56737123  0.77038780    -0.22900
H2747       H  0.41211858  0.54061068  0.81978425     0.08300
C2748       C  0.38832557  0.54313867  0.88856346     0.04600
C2749       C  0.37354687  0.52449890  0.91151170    -0.20100
C2750       C  0.38327501  0.51021051  0.92707529    -0.12400
C2751       C  0.40857054  0.51472935  0.91856570     0.13300
C2752       C  0.42328040  0.53363954  0.89591074    -0.22800
C2753       C  0.37704760  0.55768642  0.87224299    -0.05900
H2754       H  0.35425464  0.52118540  0.91729383     0.14800
C2755       C  0.42067935  0.50012489  0.93295485    -0.16100
H2756       H  0.44264891  0.53738751  0.88956038     0.09200
H2757       H  0.42034491  0.56198163  0.76312503     0.07000
H2758       H  0.44254672  0.54984332  0.76851121     0.08200
H2759       H  0.45434675  0.58231847  0.75377567     0.07300
H2760       H  0.45794741  0.58889106  0.91468199     0.02100
H2761       H  0.43567189  0.60087810  0.90820965     0.02600
H2762       H  0.47047368  0.62219778  0.90276476     0.06100
H2763       H  0.35702121  0.55163187  0.88080686     0.05100
H2764       H  0.37575026  0.55372739  0.84681836    -0.00700
H2765       H  0.38987718  0.57902354  0.87628154     0.00800
H2766       H  0.40808410  0.47885590  0.92825305     0.04500
H2767       H  0.42321993  0.50382769  0.95843239     0.06400
H2768       H  0.44040550  0.50642285  0.92314214     0.07300
C2769       C  0.56540870  0.77340544  0.66312619    -0.22300
C2770       C  0.55410891  0.76392188  0.63381713     0.09600
C2771       C  0.54171988  0.73690305  0.62743085     0.10000
C2772       C  0.54054852  0.71985377  0.65084275    -0.17300
C2773       C  0.55128884  0.72921785  0.68049779    -0.27700
C2774       C  0.56378453  0.75637604  0.68680828     0.18400
C2775       C  0.55353197  0.78233351  0.61106784     0.12300
C2776       C  0.52917817  0.72604688  0.59622064    -0.12000
H2777       H  0.53090999  0.69906044  0.64612953     0.12600
C2778       C  0.57417867  0.76803245  0.71855821    -0.22900
H2779       H  0.57455654  0.79415725  0.66796793     0.08300
C2780       C  0.53420165  0.78946010  0.61290201     0.04600
C2781       C  0.53351294  0.80602915  0.59016290    -0.20100
C2782       C  0.55174069  0.81573174  0.56560893    -0.12400
C2783       C  0.57122841  0.80854762  0.56385256     0.13300
C2784       C  0.57200488  0.79217464  0.58692525    -0.22800
C2785       C  0.51410436  0.77930993  0.63867340    -0.05900
H2786       H  0.51859996  0.81145627  0.59155020     0.14800
C2787       C  0.59065418  0.81640500  0.53745334    -0.16100
H2788       H  0.58667864  0.78641878  0.58560021     0.09200
H2789       H  0.56446194  0.77883668  0.72643440     0.07000
H2790       H  0.59568439  0.78192792  0.71710649     0.08200
H2791       H  0.57052793  0.75333365  0.73671605     0.07300
H2792       H  0.54425669  0.73470741  0.57759725     0.02100
H2793       H  0.51360969  0.73082174  0.59161874     0.02600
H2794       H  0.52004910  0.70444546  0.59527003     0.06100
H2795       H  0.50017249  0.78654185  0.63641802     0.05100
H2796       H  0.52411924  0.78584736  0.66158660    -0.00700
H2797       H  0.50259534  0.75760256  0.63804886     0.00800
H2798       H  0.61090887  0.82895974  0.54660280     0.04500
H2799       H  0.58736606  0.82691501  0.51836914     0.06400
H2800       H  0.58910884  0.79860048  0.52693395     0.07300
C2801       C  0.56330498  0.81026325  0.87975647    -0.22300
C2802       C  0.54750008  0.78307213  0.88332885     0.09600
C2803       C  0.53029183  0.77282100  0.90898361     0.10000
C2804       C  0.52957941  0.78999092  0.93076295    -0.17300
C2805       C  0.54556568  0.81723886  0.92758665    -0.27700
C2806       C  0.56231853  0.82756109  0.90129812     0.18400
C2807       C  0.54843691  0.76550927  0.85949761     0.12300
C2808       C  0.51241502  0.74375141  0.91323283    -0.12000
H2809       H  0.51671021  0.78202684  0.95079172     0.12600
C2810       C  0.57849886  0.85643375  0.89432891    -0.22900
H2811       H  0.57616486  0.81803801  0.85968596     0.08300
C2812       C  0.53604125  0.76183786  0.83030649     0.04600
C2813       C  0.53588150  0.74369831  0.80932033    -0.20100
C2814       C  0.54728036  0.72864610  0.81702430    -0.12400
C2815       C  0.55918556  0.73192239  0.84665872     0.13300
C2816       C  0.56018096  0.75082788  0.86714706    -0.22800
C2817       C  0.52233085  0.77648318  0.82163138    -0.05900
H2818       H  0.52664256  0.74114491  0.78671249     0.14800
C2819       C  0.56953399  0.71494050  0.85841904    -0.16100
H2820       H  0.56923743  0.75338509  0.88987333     0.09200
H2821       H  0.57352538  0.86019924  0.87065560     0.07000
H2822       H  0.59971339  0.86283270  0.89496978     0.08200
H2823       H  0.57490751  0.86865914  0.91068562     0.07300
H2824       H  0.52423963  0.73421539  0.91626035     0.02100
H2825       H  0.49950214  0.73535490  0.89250439     0.02600
H2826       H  0.49968686  0.73914310  0.93408701     0.06100
H2827       H  0.51305752  0.77074165  0.79821861     0.05100
H2828       H  0.53665773  0.79782418  0.82127280    -0.00700
H2829       H  0.50667520  0.77225866  0.83888678     0.00800
H2830       H  0.59102517  0.72714856  0.86254926     0.04500
H2831       H  0.56577552  0.69881251  0.84240684     0.06400
H2832       H  0.55973085  0.70572888  0.88078580     0.07300
loop_ 
_geom_bond_atom_site_label_1 
_geom_bond_atom_site_label_2 
_geom_bond_distance 
_geom_bond_site_symmetry_2 
_ccdc_geom_bond_type 
Fe1          O17   2.055       .  S
Fe1           O7   2.059       .  S
Fe1          O14   2.066       .  S
Fe1           O6   2.059       .  S
Fe1          O12   1.966       .  S
Fe2           O5   2.055       .  S
Fe2           O9   2.067       .  S
Fe2          O13   2.064       .  S
Fe2          O18   2.061       .  S
Fe2          O12   1.972       .  S
Fe3          O21   2.074       .  S
Fe3           O8   2.067       .  S
Fe3          O15   2.068       .  S
Fe3           O4   2.081       .  S
Fe3          O12   1.979       .  S
O4           C11   1.271       .  A
O5           C19   1.267       .  A
O6           C11   1.269       .  A
O7           C10   1.269       .  A
O8           C20   1.270       .  A
O9           C22   1.268       .  A
C10          O15   1.268       .  A
C10        C1270   1.478       .  S
C11        C1238   1.478       .  S
O13          C16   1.268       .  A
O14          C16   1.269       .  A
C16        C1325   1.471       .  S
O17          C22   1.267       .  A
O18          C20   1.269       .  A
C19          O21   1.270       .  A
C19        C1357   1.473       .  S
C20        C1398   1.479       .  S
C22        C1293   1.472       .  S
Fe23         O39   2.047   1_556  S
Fe23         O29   2.058   1_556  S
Fe23       O1452   2.061       .  S
Fe23       O1444   2.047       .  S
Fe23       O1450   1.970       .  S
Fe24         O35   2.069       .  S
Fe24         O40   2.061       .  S
Fe24       O1443   2.057       .  S
Fe24       O1447   2.074       .  S
Fe24         O34   1.980       .  S
Fe25         O30   2.061       .  S
Fe25         O26   2.079       .  S
Fe25       O1459   2.077       .  S
Fe25       O1453   2.066       .  S
Fe25         O34   1.986       .  S
O26          C33   1.270       .  A
O27       Fe1440   2.057   1_554  S
O27          C41   1.269       .  A
O28       Fe1439   2.047       .  S
O28          C33   1.267       .  A
O29          C32   1.267       .  A
O30          C42   1.267       .  A
O31       Fe1440   2.074   1_554  S
O31          C44   1.269       .  A
C32          O37   1.267       .  A
C32        C1133   1.474       .  S
C33        C1101   1.495       .  S
O34       Fe1439   1.970       .  S
O35          C38   1.270       .  A
O36       Fe1439   2.061       .  S
O36          C38   1.267       .  A
O37       Fe1441   2.066   1_554  S
C38        C1334   1.498       .  S
O39          C44   1.264       .  A
O40          C42   1.269       .  A
C41          O43   1.272       .  A
C41        C1197   1.480       .  S
C42        C1165   1.474       .  S
O43       Fe1441   2.077   1_554  S
C44        C1302   1.480       .  S
Fe45         O61   2.056       .  S
Fe45         O51   2.052       .  S
Fe45         O58   2.055       .  S
Fe45         O50   2.050       .  S
Fe45         O56   1.971       .  S
Fe46         O49   2.061       .  S
Fe46         O53   2.070       .  S
Fe46         O57   2.075       .  S
Fe46         O62   2.063       .  S
Fe46         O56   1.978       .  S
Fe47         O65   2.068       .  S
Fe47         O52   2.061       .  S
Fe47         O59   2.064       .  S
Fe47         O48   2.078       .  S
Fe47         O56   1.984       .  S
O48          C55   1.269       .  A
O49          C63   1.268       .  A
O50          C55   1.266       .  A
O51          C54   1.266       .  A
O52          C64   1.270       .  A
O53          C66   1.268       .  A
C54          O59   1.268       .  A
C54        C1078   1.466       .  S
C55        C1037   1.471       .  S
O57          C60   1.270       .  A
O58          C60   1.266       .  A
C60         C973   1.477       .  S
O61          C66   1.267       .  A
O62          C64   1.270       .  A
C63          O65   1.268       .  A
C63        C1206   1.475       .  S
C64        C1174   1.478       .  S
C66        C1005   1.476       .  S
Fe67         O83   2.054       .  S
Fe67         O73   2.057       .  S
Fe67       O1496   2.062   1_554  S
Fe67       O1488   2.052   1_554  S
Fe67       O1494   1.973       .  S
Fe68         O79   2.067       .  S
Fe68         O84   2.060       .  S
Fe68       O1487   2.063       .  S
Fe68       O1491   2.071       .  S
Fe68         O78   1.979       .  S
Fe69         O74   2.071       .  S
Fe69         O70   2.066       .  S
Fe69       O1503   2.065       .  S
Fe69       O1497   2.076       .  S
Fe69         O78   1.986       .  S
O70          C77   1.267       .  A
O71       Fe1484   2.063       .  S
O71          C85   1.270       .  A
O72       Fe1483   2.052       .  S
O72          C77   1.268       .  A
O73          C76   1.268       .  A
O74          C86   1.269       .  A
O75       Fe1484   2.071       .  S
O75          C88   1.269       .  A
C76          O81   1.270       .  A
C76         C877   1.476       .  S
C77         C845   1.487       .  S
O78       Fe1483   1.973       .  S
O79          C82   1.269       .  A
O80       Fe1483   2.062       .  S
O80          C82   1.268       .  A
O81       Fe1485   2.076   1_554  S
C82         C918   1.487       .  S
O83          C88   1.266       .  A
O84          C86   1.268       .  A
C85          O87   1.269       .  A
C85        C1366   1.479       .  S
C86        C1389   1.481       .  S
O87       Fe1485   2.065   1_554  S
C88         C950   1.477       .  S
Fe89        O105   2.062   1_556  S
Fe89         O95   2.052   1_556  S
Fe89       O1518   2.057       .  S
Fe89       O1510   2.049       .  S
Fe89       O1516   1.965       .  S
Fe90        O101   2.058       .  S
Fe90        O106   2.067       .  S
Fe90       O1509   2.051       .  S
Fe90       O1513   2.076       .  S
Fe90        O100   1.970       .  S
Fe91         O96   2.070       .  S
Fe91         O92   2.084       .  S
Fe91       O1525   2.069       .  S
Fe91       O1519   2.071       .  S
Fe91        O100   1.975       .  S
O92          C99   1.271       .  A
O93       Fe1506   2.051       .  S
O93         C107   1.265       .  A
O94       Fe1505   2.049       .  S
O94          C99   1.268       .  A
O95          C98   1.267       .  A
O96         C108   1.272       .  A
O97       Fe1506   2.076       .  S
O97         C110   1.272       .  A
C98         O103   1.269       .  A
C98        C1069   1.483       .  S
C99        C1046   1.481       .  S
O100      Fe1505   1.965       .  S
O101        C104   1.266       .  A
O102      Fe1505   2.057       .  S
O102        C104   1.266       .  A
O103      Fe1507   2.071       .  S
C104        C781   1.473       .  S
O105        C110   1.270       .  A
O106        C108   1.271       .  A
C107        O109   1.269       .  A
C107        C758   1.477       .  S
C108        C717   1.476       .  S
O109      Fe1507   2.069       .  S
C110        C813   1.482       .  S
Fe111       O127   2.051       .  S
Fe111       O117   2.058       .  S
Fe111       O124   2.068       .  S
Fe111       O116   2.053       .  S
Fe111       O122   1.973       .  S
Fe112       O115   2.059       .  S
Fe112       O119   2.060       .  S
Fe112       O123   2.065       .  S
Fe112       O128   2.057       .  S
Fe112       O122   1.982       .  S
Fe113       O131   2.063       .  S
Fe113       O118   2.071       .  S
Fe113       O125   2.080       .  S
Fe113       O114   2.064       .  S
Fe113       O122   1.989       .  S
O114        C121   1.267       .  A
O115        C129   1.268       .  A
O116        C121   1.267       .  A
O117        C120   1.268       .  A
O118        C130   1.269       .  A
O119        C132   1.267       .  A
C120        O125   1.270       .  A
C120        C886   1.480       .  S
C121        C854   1.467       .  S
O123        C126   1.269       .  A
O124        C126   1.270       .  A
C126        C653   1.486       .  S
O127        C132   1.266       .  A
O128        C130   1.267       .  A
C129        O131   1.268       .  A
C129        C749   1.470       .  S
C130        C726   1.476       .  S
C132        C694   1.471       .  S
Fe133       O149   2.056       .  S
Fe133       O139   2.066       .  S
Fe133       O146   2.061       .  S
Fe133       O138   2.049       .  S
Fe133       O144   1.958       .  S
Fe134       O137   2.052       .  S
Fe134       O141   2.088       .  S
Fe134       O145   2.056       .  S
Fe134       O150   2.083       .  S
Fe134       O144   1.962       .  S
Fe135       O153   2.078       .  S
Fe135       O140   2.067       .  S
Fe135       O147   2.071       .  S
Fe135       O136   2.088       .  S
Fe135       O144   1.965       .  S
O136        C143   1.272       .  A
O137        C151   1.266       .  A
O138        C143   1.267       .  A
O139        C142   1.269       .  A
O140        C152   1.272       .  A
O141        C154   1.275       .  A
C142        O147   1.270       .  A
C142        C566   1.485       .  S
C143        C525   1.476       .  S
O145        C148   1.265       .  A
O146        C148   1.266       .  A
C148        C790   1.468       .  S
O149        C154   1.269       .  A
O150        C152   1.275       .  A
C151        O153   1.270       .  A
C151        C598   1.477       .  S
C152        C630   1.485       .  S
C154        C822   1.478       .  S
Fe155       O171   2.053       .  S
Fe155       O161   2.060       .  S
Fe155      O1584   2.056   1_554  S
Fe155      O1576   2.044   1_554  S
Fe155      O1582   1.964       .  S
Fe156       O167   2.072       .  S
Fe156       O172   2.061       .  S
Fe156      O1575   2.064       .  S
Fe156      O1579   2.069       .  S
Fe156       O166   1.969       .  S
Fe157       O162   2.074       .  S
Fe157       O158   2.080       .  S
Fe157      O1591   2.074       .  S
Fe157      O1585   2.079       .  S
Fe157       O166   1.977       .  S
O158        C165   1.271       .  A
O159      Fe1572   2.064   1_554  S
O159        C173   1.269       .  A
O160      Fe1571   2.044       .  S
O160        C165   1.266       .  A
O161        C164   1.268       .  A
O162        C174   1.271       .  A
O163      Fe1572   2.069   1_554  S
O163        C176   1.270       .  A
C164        O169   1.270       .  A
C164        C429   1.490       .  S
C165        C397   1.470       .  S
O166      Fe1571   1.964       .  S
O167        C170   1.269       .  A
O168      Fe1571   2.056       .  S
O168        C170   1.265       .  A
O169      Fe1573   2.079       .  S
C170        C662   1.484       .  S
O171        C176   1.268       .  A
O172        C174   1.269       .  A
C173        O175   1.271       .  A
C173        C461   1.477       .  S
C174        C502   1.481       .  S
O175      Fe1573   2.074       .  S
C176        C685   1.472       .  S
Fe177       O193   2.066       .  S
Fe177       O183   2.045       .  S
Fe177      O1606   2.050   1_554  S
Fe177      O1598   2.068   1_554  S
Fe177      O1604   1.969       .  S
Fe178       O189   2.077       .  S
Fe178       O194   2.057       .  S
Fe178      O1597   2.071       .  S
Fe178      O1601   2.066       .  S
Fe178       O188   1.978       .  S
Fe179       O184   2.084       .  S
Fe179       O180   2.068       .  S
Fe179      O1613   2.070       .  S
Fe179      O1607   2.088       .  S
Fe179       O188   1.986       .  S
O180        C187   1.269       .  A
O181      Fe1594   2.071   1_554  S
O181        C195   1.271       .  A
O182      Fe1593   2.068       .  S
O182        C187   1.269       .  A
O183        C186   1.266       .  A
O184        C196   1.272       .  A
O185      Fe1594   2.066   1_554  S
O185        C198   1.268       .  A
C186        O191   1.271       .  A
C186       C1261   1.490       .  S
C187       C1229   1.473       .  S
O188      Fe1593   1.969       .  S
O189        C192   1.270       .  A
O190      Fe1593   2.050       .  S
O190        C192   1.266       .  A
O191      Fe1595   2.088       .  S
C192        C342   1.480       .  S
O193        C198   1.269       .  A
O194        C196   1.268       .  A
C195        O197   1.271       .  A
C195        C589   1.479       .  S
C196        C621   1.485       .  S
O197      Fe1595   2.070       .  S
C198        C365   1.482       .  S
Fe199       O215   2.061       .  S
Fe199       O205   2.043       .  S
Fe199       O212   2.057       .  S
Fe199       O204   2.053       .  S
Fe199       O210   1.975       .  S
Fe200       O203   2.067       .  S
Fe200       O207   2.063       .  S
Fe200       O211   2.075       .  S
Fe200       O216   2.058       .  S
Fe200       O210   1.981       .  S
Fe201       O219   2.071       .  S
Fe201       O206   2.081       .  S
Fe201       O213   2.085       .  S
Fe201       O202   2.075       .  S
Fe201       O210   1.989       .  S
O202        C209   1.269       .  A
O203        C217   1.271       .  A
O204        C209   1.267       .  A
O205        C208   1.266       .  A
O206        C218   1.271       .  A
O207        C220   1.266       .  A
C208        O213   1.272       .  A
C208       C1142   1.474       .  S
C209       C1110   1.477       .  S
O211        C214   1.271       .  A
O212        C214   1.269       .  A
C214        C333   1.484       .  S
O215        C220   1.265       .  A
O216        C218   1.268       .  A
C217        O219   1.270       .  A
C217        C470   1.485       .  S
C218        C493   1.487       .  S
C220        C374   1.476       .  S
Fe221       O237   2.061       .  S
Fe221       O227   2.068       .  S
Fe221      O1650   2.075   1_554  S
Fe221      O1642   2.053   1_554  S
Fe221      O1648   1.966       .  S
Fe222       O233   2.056       .  S
Fe222       O238   2.062       .  S
Fe222      O1641   2.050       .  S
Fe222      O1645   2.065       .  S
Fe222       O232   1.967       .  S
Fe223       O228   2.070       .  S
Fe223       O224   2.081       .  S
Fe223      O1657   2.079       .  S
Fe223      O1651   2.069       .  S
Fe223       O232   1.976       .  S
O224        C231   1.271       .  A
O225      Fe1638   2.050       .  S
O225        C239   1.266       .  A
O226      Fe1637   2.053       .  S
O226        C231   1.268       .  A
O227        C230   1.269       .  A
O228        C240   1.271       .  A
O229      Fe1638   2.065       .  S
O229        C242   1.269       .  A
C230        O235   1.269       .  A
C230        C557   1.474       .  S
C231        C534   1.474       .  S
O232      Fe1637   1.966       .  S
O233        C236   1.266       .  A
O234      Fe1637   2.075       .  S
O234        C236   1.270       .  A
O235      Fe1639   2.069       .  S
C236        C982   1.480       .  S
O237        C242   1.269       .  A
O238        C240   1.269       .  A
C239        O241   1.271       .  A
C239        C301   1.483       .  S
C240        C269   1.480       .  S
O241      Fe1639   2.079       .  S
C242       C1014   1.474       .  S
Fe243       O259   2.051       .  S
Fe243       O249   2.071       .  S
Fe243       O256   2.068       .  S
Fe243       O248   2.046       .  S
Fe243       O254   1.959       .  S
Fe244       O247   2.057       .  S
Fe244       O251   2.080       .  S
Fe244       O255   2.060       .  S
Fe244       O260   2.071       .  S
Fe244       O254   1.960       .  S
Fe245       O263   2.076       .  S
Fe245       O250   2.059       .  S
Fe245       O257   2.065       .  S
Fe245       O246   2.083       .  S
Fe245       O254   1.967       .  S
O246        C253   1.272       .  A
O247        C261   1.269       .  A
O248        C253   1.267       .  A
O249        C252   1.269       .  A
O250        C262   1.269       .  A
O251        C264   1.273       .  A
C252        O257   1.268       .  A
C252        C438   1.474       .  S
C253        C406   1.472       .  S
O255        C258   1.267       .  A
O256        C258   1.267       .  A
C258        C909   1.477       .  S
O259        C264   1.269       .  A
O260        C262   1.270       .  A
C261        O263   1.271       .  A
C261        C310   1.476       .  S
C262        C278   1.471       .  S
C264        C941   1.478       .  S
C265        C266   1.400       .  A
C265        C270   1.401       .  A
C265        H275   1.085       .  S
C266        C271   1.481       .  S
C266        C267   1.410       .  A
C267        C268   1.405       .  A
C267        C272   1.506       .  S
C268        C269   1.405       .  A
C268        H273   1.084       .  S
C269        C270   1.419       .  A
C270        C274   1.509       .  S
C271        C276   1.412       .  A
C271        C280   1.401       .  A
C272        H288   1.110       .  S
C272        H289   1.110       .  S
C272        H290   1.111       .  S
C274        H285   1.110       .  S
C274        H286   1.111       .  S
C274        H287   1.106       .  S
C276        C277   1.404       .  A
C276        C281   1.507       .  S
C277        C278   1.403       .  A
C277        H282   1.085       .  S
C278        C279   1.415       .  A
C279        C280   1.402       .  A
C279        C283   1.509       .  S
C280        H284   1.085       .  S
C281        H291   1.111       .  S
C281        H292   1.109       .  S
C281        H293   1.110       .  S
C283        H294   1.111       .  S
C283        H295   1.107       .  S
C283        H296   1.110       .  S
C297        C298   1.400       .  A
C297        C302   1.404       .  A
C297        H307   1.084       .  S
C298        C303   1.481       .  S
C298        C299   1.410       .  A
C299        C300   1.404       .  A
C299        C304   1.506       .  S
C300        C301   1.406       .  A
C300        H305   1.084       .  S
C301        C302   1.419       .  A
C302        C306   1.509       .  S
C303        C308   1.410       .  A
C303        C312   1.401       .  A
C304        H320   1.110       .  S
C304        H321   1.110       .  S
C304        H322   1.111       .  S
C306        H317   1.111       .  S
C306        H318   1.109       .  S
C306        H319   1.111       .  S
C308        C309   1.404       .  A
C308        C313   1.506       .  S
C309        C310   1.405       .  A
C309        H314   1.084       .  S
C310        C311   1.416       .  A
C311        C312   1.403       .  A
C311        C315   1.509       .  S
C312        H316   1.084       .  S
C313        H323   1.111       .  S
C313        H324   1.110       .  S
C313        H325   1.110       .  S
C315        H326   1.110       .  S
C315        H327   1.107       .  S
C315        H328   1.111       .  S
C329        C330   1.401       .  A
C329        C334   1.405       .  A
C329        H339   1.085       .  S
C330        C335   1.480       .  S
C330        C331   1.409       .  A
C331        C332   1.402       .  A
C331        C336   1.508       .  S
C332        C333   1.408       .  A
C332        H337   1.084       .  S
C333        C334   1.420       .  A
C334        C338   1.508       .  S
C335        C340   1.409       .  A
C335        C344   1.402       .  A
C336        H352   1.110       .  S
C336        H353   1.109       .  S
C336        H354   1.111       .  S
C338        H349   1.111       .  S
C338        H350   1.110       .  S
C338        H351   1.106       .  S
C340        C341   1.401       .  A
C340        C345   1.508       .  S
C341        C342   1.407       .  A
C341        H346   1.084       .  S
C342        C343   1.418       .  A
C343        C344   1.405       .  A
C343        C347   1.508       .  S
C344        H348   1.085       .  S
C345        H355   1.111       .  S
C345        H356   1.110       .  S
C345        H357   1.109       .  S
C347        H358   1.110       .  S
C347        H359   1.106       .  S
C347        H360   1.111       .  S
C361        C362   1.401       .  A
C361        C366   1.407       .  A
C361        H371   1.084       .  S
C362        C367   1.481       .  S
C362        C363   1.410       .  A
C363        C364   1.402       .  A
C363        C368   1.507       .  S
C364        C365   1.404       .  A
C364        H369   1.084       .  S
C365        C366   1.418       .  A
C366        C370   1.507       .  S
C367        C372   1.411       .  A
C367        C376   1.400       .  A
C368        H384   1.110       .  S
C368        H385   1.110       .  S
C368        H386   1.111       .  S
C370        H381   1.111       .  S
C370        H382   1.111       .  S
C370        H383   1.110       .  S
C372        C373   1.404       .  A
C372        C377   1.506       .  S
C373        C374   1.404       .  A
C373        H378   1.085       .  S
C374        C375   1.418       .  A
C375        C376   1.404       .  A
C375        C379   1.509       .  S
C376        H380   1.085       .  S
C377        H387   1.111       .  S
C377        H388   1.110       .  S
C377        H389   1.110       .  S
C379        H390   1.110       .  S
C379        H391   1.106       .  S
C379        H392   1.111       .  S
C393        C394   1.400       .  A
C393        C398   1.399       .  A
C393        H403   1.085       .  S
C394        C399   1.475   1_545  S
C394        C395   1.409       .  A
C395        C396   1.404       .  A
C395        C400   1.506   1_545  S
C396        C397   1.404       .  A
C396        H401   1.084       .  S
C397        C398   1.415       .  A
C398        C402   1.509       .  S
C399        C404   1.409       .  A
C399        C408   1.400       .  A
C400        H416   1.110       .  S
C400        H417   1.110       .  S
C400        H418   1.111       .  S
C402        H413   1.111       .  S
C402        H414   1.110       .  S
C402        H415   1.108       .  S
C404        C405   1.403       .  A
C404        C409   1.506       .  S
C405        C406   1.404       .  A
C405        H410   1.084       .  S
C406        C407   1.416       .  A
C407        C408   1.400       .  A
C407        C411   1.509       .  S
C408        H412   1.085       .  S
C409        H419   1.111       .  S
C409        H420   1.110   1_565  S
C409        H421   1.110   1_565  S
C411        H422   1.110       .  S
C411        H423   1.108       .  S
C411        H424   1.111       .  S
C425        C426   1.401       .  A
C425        C430   1.410       .  A
C425        H435   1.084       .  S
C426        C431   1.483   1_545  S
C426        C427   1.409       .  A
C427        C428   1.400       .  A
C427        C432   1.509       .  S
C428        C429   1.408       .  A
C428        H433   1.084       .  S
C429        C430   1.423       .  A
C430        C434   1.508       .  S
C431        C436   1.410       .  A
C431        C440   1.403       .  A
C432        H448   1.110   1_545  S
C432        H449   1.109       .  S
C432        H450   1.111       .  S
C434        H445   1.110       .  S
C434        H446   1.111       .  S
C434        H447   1.104       .  S
C436        C437   1.403       .  A
C436        C441   1.507   1_565  S
C437        C438   1.404       .  A
C437        H442   1.084       .  S
C438        C439   1.416       .  A
C439        C440   1.405       .  A
C439        C443   1.508       .  S
C440        H444   1.084       .  S
C441        H451   1.111       .  S
C441        H452   1.110       .  S
C441        H453   1.109       .  S
C443        H454   1.110       .  S
C443        H455   1.107       .  S
C443        H456   1.110       .  S
C457        C458   1.400       .  A
C457        C462   1.404       .  A
C457        H467   1.085       .  S
C458        C463   1.482       .  S
C458        C459   1.411       .  A
C459        C460   1.405       .  A
C459        C464   1.506       .  S
C460        C461   1.404       .  A
C460        H465   1.084       .  S
C461        C462   1.419       .  A
C462        C466   1.509       .  S
C463        C468   1.410       .  A
C463        C472   1.400       .  A
C464        H480   1.110       .  S
C464        H481   1.110       .  S
C464        H482   1.111       .  S
C466        H477   1.111       .  S
C466        H478   1.110       .  S
C466        H479   1.106       .  S
C468        C469   1.403       .  A
C468        C473   1.506       .  S
C469        C470   1.406       .  A
C469        H474   1.084       .  S
C470        C471   1.419       .  A
C471        C472   1.406       .  A
C471        C475   1.507       .  S
C472        H476   1.084       .  S
C473        H483   1.111       .  S
C473        H484   1.110       .  S
C473        H485   1.110       .  S
C475        H486   1.111       .  S
C475        H487   1.110       .  S
C475        H488   1.111       .  S
C489        C490   1.403       .  A
C489        C494   1.407       .  A
C489        H499   1.085       .  S
C490        C495   1.485       .  S
C490        C491   1.409       .  A
C491        C492   1.403       .  A
C491        C496   1.507       .  S
C492        C493   1.408       .  A
C492        H497   1.084       .  S
C493        C494   1.419       .  A
C494        C498   1.508       .  S
C495        C500   1.409       .  A
C495        C504   1.404       .  A
C496        H512   1.110       .  S
C496        H513   1.110       .  S
C496        H514   1.111       .  S
C498        H509   1.111       .  S
C498        H510   1.110       .  S
C498        H511   1.106       .  S
C500        C501   1.401       .  A
C500        C505   1.507       .  S
C501        C502   1.405       .  A
C501        H506   1.085       .  S
C502        C503   1.418       .  A
C503        C504   1.408       .  A
C503        C507   1.509       .  S
C504        H508   1.084       .  S
C505        H515   1.111       .  S
C505        H516   1.110       .  S
C505        H517   1.110       .  S
C507        H518   1.110       .  S
C507        H519   1.106       .  S
C507        H520   1.111       .  S
C521        C522   1.400       .  A
C521        C526   1.401       .  A
C521        H531   1.085       .  S
C522        C527   1.479       .  S
C522        C523   1.410       .  A
C523        C524   1.404       .  A
C523        C528   1.505       .  S
C524        C525   1.405       .  A
C524        H529   1.084       .  S
C525        C526   1.416       .  A
C526        C530   1.507       .  S
C527        C532   1.410       .  A
C527        C536   1.401   1_655  A
C528        H544   1.110   1_655  S
C528        H545   1.110   1_655  S
C528        H546   1.111       .  S
C530        H541   1.111       .  S
C530        H542   1.110       .  S
C530        H543   1.108       .  S
C532        C533   1.405   1_655  A
C532        C537   1.506       .  S
C533        C534   1.405       .  A
C533        H538   1.084       .  S
C534        C535   1.415       .  A
C535        C536   1.401       .  A
C535        C539   1.509       .  S
C536        H540   1.085       .  S
C537        H547   1.111       .  S
C537        H548   1.110       .  S
C537        H549   1.110       .  S
C539        H550   1.110       .  S
C539        H551   1.108       .  S
C539        H552   1.110       .  S
C553        C554   1.403       .  A
C553        C558   1.405       .  A
C553        H563   1.084       .  S
C554        C559   1.481   1_455  S
C554        C555   1.409   1_455  A
C555        C556   1.403   1_655  A
C555        C560   1.507       .  S
C556        C557   1.404       .  A
C556        H561   1.084       .  S
C557        C558   1.415       .  A
C558        C562   1.508       .  S
C559        C564   1.409       .  A
C559        C568   1.401       .  A
C560        H576   1.110       .  S
C560        H577   1.109       .  S
C560        H578   1.111       .  S
C562        H573   1.110       .  S
C562        H574   1.110       .  S
C562        H575   1.107       .  S
C564        C565   1.399       .  A
C564        C569   1.509       .  S
C565        C566   1.407       .  A
C565        H570   1.084       .  S
C566        C567   1.421       .  A
C567        C568   1.408       .  A
C567        C571   1.508       .  S
C568        H572   1.084       .  S
C569        H579   1.111       .  S
C569        H580   1.110   1_655  S
C569        H581   1.109       .  S
C571        H582   1.111       .  S
C571        H583   1.105       .  S
C571        H584   1.110       .  S
C585        C586   1.400       .  A
C585        C590   1.404       .  A
C585        H595   1.085       .  S
C586        C591   1.482       .  S
C586        C587   1.411       .  A
C587        C588   1.404       .  A
C587        C592   1.507       .  S
C588        C589   1.404       .  A
C588        H593   1.084       .  S
C589        C590   1.419       .  A
C590        C594   1.509       .  S
C591        C596   1.411       .  A
C591        C600   1.400       .  A
C592        H608   1.110       .  S
C592        H609   1.110       .  S
C592        H610   1.111       .  S
C594        H605   1.111       .  S
C594        H606   1.110       .  S
C594        H607   1.106       .  S
C596        C597   1.404       .  A
C596        C601   1.506       .  S
C597        C598   1.405       .  A
C597        H602   1.084       .  S
C598        C599   1.419       .  A
C599        C600   1.403       .  A
C599        C603   1.509       .  S
C600        H604   1.085       .  S
C601        H611   1.111       .  S
C601        H612   1.110       .  S
C601        H613   1.110       .  S
C603        H614   1.110       .  S
C603        H615   1.105       .  S
C603        H616   1.111       .  S
C617        C618   1.404       .  A
C617        C622   1.409       .  A
C617        H627   1.084       .  S
C618        C623   1.488       .  S
C618        C619   1.411       .  A
C619        C620   1.402       .  A
C619        C624   1.507       .  S
C620        C621   1.406       .  A
C620        H625   1.084       .  S
C621        C622   1.419       .  A
C622        C626   1.508       .  S
C623        C628   1.411       .  A
C623        C632   1.403       .  A
C624        H640   1.110       .  S
C624        H641   1.110       .  S
C624        H642   1.111       .  S
C626        H637   1.111       .  S
C626        H638   1.110       .  S
C626        H639   1.106       .  S
C628        C629   1.404       .  A
C628        C633   1.507       .  S
C629        C630   1.405       .  A
C629        H634   1.084       .  S
C630        C631   1.420       .  A
C631        C632   1.407       .  A
C631        C635   1.509       .  S
C632        H636   1.085       .  S
C633        H643   1.111       .  S
C633        H644   1.110       .  S
C633        H645   1.110       .  S
C635        H646   1.110       .  S
C635        H647   1.106       .  S
C635        H648   1.111       .  S
C649        C650   1.399       .  A
C649        C654   1.404       .  A
C649        H659   1.084       .  S
C650        C655   1.481       .  S
C650        C651   1.410       .  A
C651        C652   1.405       .  A
C651        C656   1.506       .  S
C652        C653   1.407       .  A
C652        H657   1.083       .  S
C653        C654   1.419       .  A
C654        C658   1.508       .  S
C655        C660   1.411       .  A
C655        C664   1.397       .  A
C656        H672   1.110       .  S
C656        H673   1.110       .  S
C656        H674   1.111       .  S
C658        H669   1.111       .  S
C658        H670   1.109       .  S
C658        H671   1.111       .  S
C660        C661   1.407       .  A
C660        C665   1.505       .  S
C661        C662   1.407       .  A
C661        H666   1.084       .  S
C662        C663   1.421       .  A
C663        C664   1.401       .  A
C663        C667   1.509       .  S
C664        H668   1.085       .  S
C665        H675   1.111       .  S
C665        H676   1.110       .  S
C665        H677   1.110       .  S
C667        H678   1.109       .  S
C667        H679   1.109       .  S
C667        H680   1.111       .  S
C681        C682   1.398       .  A
C681        C686   1.401       .  A
C681        H691   1.085       .  S
C682        C687   1.473       .  S
C682        C683   1.409       .  A
C683        C684   1.401       .  A
C683        C688   1.507       .  S
C684        C685   1.404       .  A
C684        H689   1.084       .  S
C685        C686   1.420       .  A
C686        C690   1.510       .  S
C687        C692   1.408       .  A
C687        C696   1.400       .  A
C688        H704   1.110       .  S
C688        H705   1.110       .  S
C688        H706   1.111       .  S
C690        H701   1.111       .  S
C690        H702   1.110       .  S
C690        H703   1.105       .  S
C692        C693   1.398       .  A
C692        C697   1.507       .  S
C693        C694   1.403       .  A
C693        H698   1.081       .  S
C694        C695   1.418       .  A
C695        C696   1.402       .  A
C695        C699   1.509       .  S
C696        H700   1.085       .  S
C697        H707   1.111       .  S
C697        H708   1.110       .  S
C697        H709   1.110       .  S
C699        H710   1.110       .  S
C699        H711   1.105       .  S
C699        H712   1.111       .  S
C713        C714   1.400       .  A
C713        C718   1.404       .  A
C713        H723   1.084       .  S
C714        C719   1.479       .  S
C714        C715   1.410       .  A
C715        C716   1.402       .  A
C715        C720   1.507       .  S
C716        C717   1.404       .  A
C716        H721   1.084       .  S
C717        C718   1.418       .  A
C718        C722   1.508       .  S
C719        C724   1.409       .  A
C719        C728   1.401       .  A
C720        H736   1.110       .  S
C720        H737   1.110       .  S
C720        H738   1.111       .  S
C722        H733   1.110       .  S
C722        H734   1.111       .  S
C722        H735   1.106       .  S
C724        C725   1.403       .  A
C724        C729   1.506       .  S
C725        C726   1.404       .  A
C725        H730   1.084       .  S
C726        C727   1.417       .  A
C727        C728   1.403       .  A
C727        C731   1.509       .  S
C728        H732   1.085       .  S
C729        H739   1.111       .  S
C729        H740   1.110       .  S
C729        H741   1.110       .  S
C731        H742   1.111       .  S
C731        H743   1.107       .  S
C731        H744   1.110       .  S
C745        C746   1.400       .  A
C745        C750   1.401       .  A
C745        H755   1.084       .  S
C746        C751   1.476       .  S
C746        C747   1.410       .  A
C747        C748   1.403       .  A
C747        C752   1.506       .  S
C748        C749   1.403       .  A
C748        H753   1.084       .  S
C749        C750   1.415       .  A
C750        C754   1.509       .  S
C751        C756   1.408       .  A
C751        C760   1.401       .  A
C752        H768   1.110       .  S
C752        H769   1.110       .  S
C752        H770   1.111       .  S
C754        H765   1.111       .  S
C754        H766   1.110       .  S
C754        H767   1.108       .  S
C756        C757   1.401       .  A
C756        C761   1.506       .  S
C757        C758   1.405       .  A
C757        H762   1.084       .  S
C758        C759   1.417       .  A
C759        C760   1.403       .  A
C759        C763   1.509       .  S
C760        H764   1.084       .  S
C761        H771   1.111       .  S
C761        H772   1.110       .  S
C761        H773   1.110       .  S
C763        H774   1.111       .  S
C763        H775   1.109       .  S
C763        H776   1.111       .  S
C777        C778   1.400       .  A
C777        C782   1.399       .  A
C777        H787   1.085       .  S
C778        C783   1.475       .  S
C778        C779   1.408       .  A
C779        C780   1.402       .  A
C779        C784   1.505       .  S
C780        C781   1.405       .  A
C780        H785   1.084       .  S
C781        C782   1.417       .  A
C782        C786   1.507       .  S
C783        C788   1.409       .  A
C783        C792   1.401       .  A
C784        H800   1.110       .  S
C784        H801   1.110       .  S
C784        H802   1.111       .  S
C786        H797   1.110       .  S
C786        H798   1.111       .  S
C786        H799   1.105       .  S
C788        C789   1.399       .  A
C788        C793   1.507       .  S
C789        C790   1.401       .  A
C789        H794   1.082       .  S
C790        C791   1.416       .  A
C791        C792   1.403       .  A
C791        C795   1.508       .  S
C792        H796   1.085       .  S
C793        H803   1.111       .  S
C793        H804   1.110       .  S
C793        H805   1.110       .  S
C795        H806   1.111       .  S
C795        H807   1.107       .  S
C795        H808   1.110       .  S
C809        C810   1.401       .  A
C809        C814   1.405       .  A
C809        H819   1.084       .  S
C810        C815   1.482       .  S
C810        C811   1.409       .  A
C811        C812   1.404       .  A
C811        C816   1.506       .  S
C812        C813   1.406       .  A
C812        H817   1.084       .  S
C813        C814   1.419       .  A
C814        C818   1.509       .  S
C815        C820   1.410       .  A
C815        C824   1.401       .  A
C816        H832   1.110       .  S
C816        H833   1.110       .  S
C816        H834   1.111       .  S
C818        H829   1.111       .  S
C818        H830   1.110       .  S
C818        H831   1.106       .  S
C820        C821   1.404       .  A
C820        C825   1.506       .  S
C821        C822   1.404       .  A
C821        H826   1.084       .  S
C822        C823   1.418       .  A
C823        C824   1.405       .  A
C823        C827   1.509       .  S
C824        H828   1.084       .  S
C825        H835   1.111       .  S
C825        H836   1.110       .  S
C825        H837   1.110       .  S
C827        H838   1.110       .  S
C827        H839   1.107       .  S
C827        H840   1.111       .  S
C841        C842   1.400       .  A
C841        C846   1.407       .  A
C841        H851   1.084       .  S
C842        C847   1.475   1_565  S
C842        C843   1.408       .  A
C843        C844   1.397       .  A
C843        C848   1.509       .  S
C844        C845   1.408       .  A
C844        H849   1.084       .  S
C845        C846   1.421       .  A
C846        C850   1.507       .  S
C847        C852   1.411       .  A
C847        C856   1.399   1_545  A
C848        H864   1.110       .  S
C848        H865   1.110   1_565  S
C848        H866   1.111       .  S
C850        H861   1.110       .  S
C850        H862   1.111       .  S
C850        H863   1.110       .  S
C852        C853   1.403       .  A
C852        C857   1.506       .  S
C853        C854   1.401       .  A
C853        H858   1.084       .  S
C854        C855   1.416       .  A
C855        C856   1.398   1_545  A
C855        C859   1.510       .  S
C856        H860   1.085       .  S
C857        H867   1.111       .  S
C857        H868   1.110       .  S
C857        H869   1.110       .  S
C859        H870   1.110   1_545  S
C859        H871   1.108       .  S
C859        H872   1.111   1_545  S
C873        C874   1.402       .  A
C873        C878   1.406       .  A
C873        H883   1.085       .  S
C874        C879   1.481   1_565  S
C874        C875   1.411       .  A
C875        C876   1.401       .  A
C875        C880   1.508       .  S
C876        C877   1.402       .  A
C876        H881   1.082       .  S
C877        C878   1.418       .  A
C878        C882   1.508       .  S
C879        C884   1.410       .  A
C879        C888   1.400       .  A
C880        H896   1.110       .  S
C880        H897   1.109       .  S
C880        H898   1.111       .  S
C882        H893   1.110       .  S
C882        H894   1.110       .  S
C882        H895   1.106       .  S
C884        C885   1.408       .  A
C884        C889   1.505   1_545  S
C885        C886   1.407       .  A
C885        H890   1.084       .  S
C886        C887   1.415       .  A
C887        C888   1.400       .  A
C887        C891   1.506       .  S
C888        H892   1.085       .  S
C889        H899   1.111       .  S
C889        H900   1.110       .  S
C889        H901   1.109       .  S
C891        H902   1.111       .  S
C891        H903   1.108       .  S
C891        H904   1.110       .  S
C905        C906   1.399       .  A
C905        C910   1.402       .  A
C905        H915   1.085       .  S
C906        C911   1.478       .  S
C906        C907   1.410       .  A
C907        C908   1.404       .  A
C907        C912   1.506       .  S
C908        C909   1.404       .  A
C908        H913   1.085       .  S
C909        C910   1.417       .  A
C910        C914   1.509       .  S
C911        C916   1.408       .  A
C911        C920   1.399       .  A
C912        H928   1.110       .  S
C912        H929   1.110       .  S
C912        H930   1.111       .  S
C914        H925   1.111       .  S
C914        H926   1.109       .  S
C914        H927   1.111       .  S
C916        C917   1.403       .  A
C916        C921   1.506       .  S
C917        C918   1.408       .  A
C917        H922   1.084       .  S
C918        C919   1.420       .  A
C919        C920   1.403       .  A
C919        C923   1.508       .  S
C920        H924   1.085       .  S
C921        H931   1.111       .  S
C921        H932   1.110       .  S
C921        H933   1.110       .  S
C923        H934   1.109       .  S
C923        H935   1.111       .  S
C923        H936   1.111       .  S
C937        C938   1.401       .  A
C937        C942   1.403       .  A
C937        H947   1.084       .  S
C938        C943   1.478       .  S
C938        C939   1.408       .  A
C939        C940   1.402       .  A
C939        C944   1.507       .  S
C940        C941   1.406       .  A
C940        H945   1.084       .  S
C941        C942   1.418       .  A
C942        C946   1.509       .  S
C943        C948   1.410       .  A
C943        C952   1.399       .  A
C944        H960   1.110       .  S
C944        H961   1.110       .  S
C944        H962   1.111       .  S
C946        H957   1.111       .  S
C946        H958   1.110       .  S
C946        H959   1.106       .  S
C948        C949   1.404       .  A
C948        C953   1.506       .  S
C949        C950   1.404       .  A
C949        H954   1.084       .  S
C950        C951   1.418       .  A
C951        C952   1.402       .  A
C951        C955   1.507       .  S
C952        H956   1.084       .  S
C953        H963   1.110       .  S
C953        H964   1.110       .  S
C953        H965   1.110       .  S
C955        H966   1.110       .  S
C955        H967   1.106       .  S
C955        H968   1.110       .  S
C969        C970   1.400       .  A
C969        C974   1.401       .  A
C969        H979   1.085       .  S
C970        C975   1.483       .  S
C970        C971   1.412       .  A
C971        C972   1.407       .  A
C971        C976   1.506       .  S
C972        C973   1.404       .  A
C972        H977   1.084       .  S
C973        C974   1.417       .  A
C974        C978   1.508       .  S
C975        C980   1.412       .  A
C975        C984   1.400       .  A
C976        H992   1.110       .  S
C976        H993   1.110       .  S
C976        H994   1.111       .  S
C978        H989   1.110       .  S
C978        H990   1.111       .  S
C978        H991   1.107       .  S
C980        C981   1.404       .  A
C980        C985   1.507       .  S
C981        C982   1.404       .  A
C981        H986   1.084       .  S
C982        C983   1.420       .  A
C983        C984   1.404       .  A
C983        C987   1.510       .  S
C984        H988   1.085       .  S
C985        H995   1.111       .  S
C985        H996   1.110       .  S
C985        H997   1.110       .  S
C987        H998   1.111       .  S
C987        H999   1.105       .  S
C987       H1000   1.110       .  S
C1001      C1002   1.400       .  A
C1001      C1006   1.401       .  A
C1001      H1011   1.085       .  S
C1002      C1007   1.478       .  S
C1002      C1003   1.410       .  A
C1003      C1004   1.404       .  A
C1003      C1008   1.506       .  S
C1004      C1005   1.405       .  A
C1004      H1009   1.084       .  S
C1005      C1006   1.417       .  A
C1006      C1010   1.509       .  S
C1007      C1012   1.409       .  A
C1007      C1016   1.401       .  A
C1008      H1024   1.110       .  S
C1008      H1025   1.110       .  S
C1008      H1026   1.111       .  S
C1010      H1021   1.111       .  S
C1010      H1022   1.110       .  S
C1010      H1023   1.107       .  S
C1012      C1013   1.402       .  A
C1012      C1017   1.506       .  S
C1013      C1014   1.405       .  A
C1013      H1018   1.084       .  S
C1014      C1015   1.416       .  A
C1015      C1016   1.403       .  A
C1015      C1019   1.509       .  S
C1016      H1020   1.084       .  S
C1017      H1027   1.111       .  S
C1017      H1028   1.110       .  S
C1017      H1029   1.110       .  S
C1019      H1030   1.110       .  S
C1019      H1031   1.107       .  S
C1019      H1032   1.111       .  S
C1033      C1034   1.402       .  A
C1033      C1038   1.403       .  A
C1033      H1043   1.084   1_455  S
C1034      C1039   1.481   1_455  S
C1034      C1035   1.412       .  A
C1035      C1036   1.402       .  A
C1035      C1040   1.507       .  S
C1036      C1037   1.402       .  A
C1036      H1041   1.083       .  S
C1037      C1038   1.416       .  A
C1038      C1042   1.508       .  S
C1039      C1044   1.411       .  A
C1039      C1048   1.402       .  A
C1040      H1056   1.110       .  S
C1040      H1057   1.110       .  S
C1040      H1058   1.111       .  S
C1042      H1053   1.111   1_455  S
C1042      H1054   1.110       .  S
C1042      H1055   1.107       .  S
C1044      C1045   1.399       .  A
C1044      C1049   1.508       .  S
C1045      C1046   1.403       .  A
C1045      H1050   1.081       .  S
C1046      C1047   1.418       .  A
C1047      C1048   1.407       .  A
C1047      C1051   1.508       .  S
C1048      H1052   1.084       .  S
C1049      H1059   1.111       .  S
C1049      H1060   1.109       .  S
C1049      H1061   1.110       .  S
C1051      H1062   1.111       .  S
C1051      H1063   1.110       .  S
C1051      H1064   1.111       .  S
C1065      C1066   1.400       .  A
C1065      C1070   1.406       .  A
C1065      H1075   1.085       .  S
C1066      C1071   1.474   1_655  S
C1066      C1067   1.407       .  A
C1067      C1068   1.396       .  A
C1067      C1072   1.509       .  S
C1068      C1069   1.408       .  A
C1068      H1073   1.084       .  S
C1069      C1070   1.422       .  A
C1070      C1074   1.508       .  S
C1071      C1076   1.409   1_455  A
C1071      C1080   1.402       .  A
C1072      H1088   1.110   1_655  S
C1072      H1089   1.109       .  S
C1072      H1090   1.111       .  S
C1074      H1085   1.110       .  S
C1074      H1086   1.111       .  S
C1074      H1087   1.104       .  S
C1076      C1077   1.398   1_655  A
C1076      C1081   1.508       .  S
C1077      C1078   1.402       .  A
C1077      H1082   1.084       .  S
C1078      C1079   1.415       .  A
C1079      C1080   1.404       .  A
C1079      C1083   1.509       .  S
C1080      H1084   1.084       .  S
C1081      H1091   1.111       .  S
C1081      H1092   1.110       .  S
C1081      H1093   1.109       .  S
C1083      H1094   1.110       .  S
C1083      H1095   1.107       .  S
C1083      H1096   1.110       .  S
C1097      C1098   1.401       .  A
C1097      C1102   1.409       .  A
C1097      H1107   1.084       .  S
C1098      C1103   1.479       .  S
C1098      C1099   1.407       .  A
C1099      C1100   1.398       .  A
C1099      C1104   1.510       .  S
C1100      C1101   1.411       .  A
C1100      H1105   1.083       .  S
C1101      C1102   1.423       .  A
C1102      C1106   1.507       .  S
C1103      C1108   1.411       .  A
C1103      C1112   1.399       .  A
C1104      H1120   1.110       .  S
C1104      H1121   1.109       .  S
C1104      H1122   1.110       .  S
C1106      H1117   1.110       .  S
C1106      H1118   1.111       .  S
C1106      H1119   1.110       .  S
C1108      C1109   1.406       .  A
C1108      C1113   1.506       .  S
C1109      C1110   1.404       .  A
C1109      H1114   1.084       .  S
C1110      C1111   1.418       .  A
C1111      C1112   1.400       .  A
C1111      C1115   1.509       .  S
C1112      H1116   1.084       .  S
C1113      H1123   1.111       .  S
C1113      H1124   1.110       .  S
C1113      H1125   1.109       .  S
C1115      H1126   1.111       .  S
C1115      H1127   1.107       .  S
C1115      H1128   1.110       .  S
C1129      C1130   1.401       .  A
C1129      C1134   1.401       .  A
C1129      H1139   1.084       .  S
C1130      C1135   1.480       .  S
C1130      C1131   1.409       .  A
C1131      C1132   1.405       .  A
C1131      C1136   1.505       .  S
C1132      C1133   1.405       .  A
C1132      H1137   1.084       .  S
C1133      C1134   1.415       .  A
C1134      C1138   1.509       .  S
C1135      C1140   1.410       .  A
C1135      C1144   1.401       .  A
C1136      H1152   1.110       .  S
C1136      H1153   1.110       .  S
C1136      H1154   1.111       .  S
C1138      H1149   1.110       .  S
C1138      H1150   1.111       .  S
C1138      H1151   1.108       .  S
C1140      C1141   1.400       .  A
C1140      C1145   1.507       .  S
C1141      C1142   1.403       .  A
C1141      H1146   1.085       .  S
C1142      C1143   1.418       .  A
C1143      C1144   1.405       .  A
C1143      C1147   1.508       .  S
C1144      H1148   1.085       .  S
C1145      H1155   1.111       .  S
C1145      H1156   1.110       .  S
C1145      H1157   1.110       .  S
C1147      H1158   1.110       .  S
C1147      H1159   1.106       .  S
C1147      H1160   1.110       .  S
C1161      C1162   1.399       .  A
C1161      C1166   1.398       .  A
C1161      H1171   1.085       .  S
C1162      C1167   1.478       .  S
C1162      C1163   1.412       .  A
C1163      C1164   1.405       .  A
C1163      C1168   1.506       .  S
C1164      C1165   1.405       .  A
C1164      H1169   1.084       .  S
C1165      C1166   1.417       .  A
C1166      C1170   1.510       .  S
C1167      C1172   1.411       .  A
C1167      C1176   1.399       .  A
C1168      H1184   1.109       .  S
C1168      H1185   1.110       .  S
C1168      H1186   1.111       .  S
C1170      H1181   1.111       .  S
C1170      H1182   1.110       .  S
C1170      H1183   1.106       .  S
C1172      C1173   1.404       .  A
C1172      C1177   1.507       .  S
C1173      C1174   1.405       .  A
C1173      H1178   1.084       .  S
C1174      C1175   1.418       .  A
C1175      C1176   1.401       .  A
C1175      C1179   1.509       .  S
C1176      H1180   1.085       .  S
C1177      H1187   1.111       .  S
C1177      H1188   1.109       .  S
C1177      H1189   1.110       .  S
C1179      H1190   1.109       .  S
C1179      H1191   1.111       .  S
C1179      H1192   1.111       .  S
C1193      C1194   1.400       .  A
C1193      C1198   1.402       .  A
C1193      H1203   1.085       .  S
C1194      C1199   1.480       .  S
C1194      C1195   1.410       .  A
C1195      C1196   1.405       .  A
C1195      C1200   1.506       .  S
C1196      C1197   1.406       .  A
C1196      H1201   1.084       .  S
C1197      C1198   1.418       .  A
C1198      C1202   1.509       .  S
C1199      C1204   1.410       .  A
C1199      C1208   1.402       .  A
C1200      H1216   1.110       .  S
C1200      H1217   1.110       .  S
C1200      H1218   1.111       .  S
C1202      H1213   1.111       .  S
C1202      H1214   1.110       .  S
C1202      H1215   1.107       .  S
C1204      C1205   1.403       .  A
C1204      C1209   1.507       .  S
C1205      C1206   1.404       .  A
C1205      H1210   1.084       .  S
C1206      C1207   1.416       .  A
C1207      C1208   1.404       .  A
C1207      C1211   1.509       .  S
C1208      H1212   1.084       .  S
C1209      H1219   1.111       .  S
C1209      H1220   1.110       .  S
C1209      H1221   1.110       .  S
C1211      H1222   1.110       .  S
C1211      H1223   1.108       .  S
C1211      H1224   1.111       .  S
C1225      C1226   1.403       .  A
C1225      C1230   1.406       .  A
C1225      H1235   1.084       .  S
C1226      C1231   1.485       .  S
C1226      C1227   1.413       .  A
C1227      C1228   1.403       .  A
C1227      C1232   1.507       .  S
C1228      C1229   1.401       .  A
C1228      H1233   1.085       .  S
C1229      C1230   1.416       .  A
C1230      C1234   1.507       .  S
C1231      C1236   1.412       .  A
C1231      C1240   1.402       .  A
C1232      H1248   1.110       .  S
C1232      H1249   1.110       .  S
C1232      H1250   1.111       .  S
C1234      H1245   1.111       .  S
C1234      H1246   1.110       .  S
C1234      H1247   1.108       .  S
C1236      C1237   1.403       .  A
C1236      C1241   1.507       .  S
C1237      C1238   1.403       .  A
C1237      H1242   1.084       .  S
C1238      C1239   1.419       .  A
C1239      C1240   1.406       .  A
C1239      C1243   1.509       .  S
C1240      H1244   1.085       .  S
C1241      H1251   1.111       .  S
C1241      H1252   1.110       .  S
C1241      H1253   1.110       .  S
C1243      H1254   1.110       .  S
C1243      H1255   1.106       .  S
C1243      H1256   1.111       .  S
C1257      C1258   1.402       .  A
C1257      C1262   1.408       .  A
C1257      H1267   1.085       .  S
C1258      C1263   1.482       .  S
C1258      C1259   1.409       .  A
C1259      C1260   1.398       .  A
C1259      C1264   1.509       .  S
C1260      C1261   1.409       .  A
C1260      H1265   1.084       .  S
C1261      C1262   1.422       .  A
C1262      C1266   1.508       .  S
C1263      C1268   1.409       .  A
C1263      C1272   1.404       .  A
C1264      H1280   1.110       .  S
C1264      H1281   1.111       .  S
C1264      H1282   1.111       .  S
C1266      H1277   1.111       .  S
C1266      H1278   1.110       .  S
C1266      H1279   1.104       .  S
C1268      C1269   1.398       .  A
C1268      C1273   1.507       .  S
C1269      C1270   1.404       .  A
C1269      H1274   1.085       .  S
C1270      C1271   1.419       .  A
C1271      C1272   1.407       .  A
C1271      C1275   1.509       .  S
C1272      H1276   1.085       .  S
C1273      H1283   1.111       .  S
C1273      H1284   1.110       .  S
C1273      H1285   1.110       .  S
C1275      H1286   1.110       .  S
C1275      H1287   1.105       .  S
C1275      H1288   1.111       .  S
C1289      C1290   1.401       .  A
C1289      C1294   1.404       .  A
C1289      H1299   1.084       .  S
C1290      C1295   1.475       .  S
C1290      C1291   1.409       .  A
C1291      C1292   1.399       .  A
C1291      C1296   1.507       .  S
C1292      C1293   1.403       .  A
C1292      H1297   1.084       .  S
C1293      C1294   1.417       .  A
C1294      C1298   1.508       .  S
C1295      C1300   1.409       .  A
C1295      C1304   1.397       .  A
C1296      H1312   1.110       .  S
C1296      H1313   1.110       .  S
C1296      H1314   1.111       .  S
C1298      H1309   1.110       .  S
C1298      H1310   1.111       .  S
C1298      H1311   1.106       .  S
C1300      C1301   1.405       .  A
C1300      C1305   1.506       .  S
C1301      C1302   1.406       .  A
C1301      H1306   1.084       .  S
C1302      C1303   1.419       .  A
C1303      C1304   1.399       .  A
C1303      C1307   1.510       .  S
C1304      H1308   1.085       .  S
C1305      H1315   1.111       .  S
C1305      H1316   1.110       .  S
C1305      H1317   1.110       .  S
C1307      H1318   1.111       .  S
C1307      H1319   1.109       .  S
C1307      H1320   1.111       .  S
C1321      C1322   1.400       .  A
C1321      C1326   1.401       .  A
C1321      H1331   1.085       .  S
C1322      C1327   1.479       .  S
C1322      C1323   1.412       .  A
C1323      C1324   1.404       .  A
C1323      C1328   1.506       .  S
C1324      C1325   1.402       .  A
C1324      H1329   1.084       .  S
C1325      C1326   1.416       .  A
C1326      C1330   1.509       .  S
C1327      C1332   1.407       .  A
C1327      C1336   1.397       .  A
C1328      H1344   1.110       .  S
C1328      H1345   1.110       .  S
C1328      H1346   1.111       .  S
C1330      H1341   1.111       .  S
C1330      H1342   1.110       .  S
C1330      H1343   1.107       .  S
C1332      C1333   1.405       .  A
C1332      C1337   1.506       .  S
C1333      C1334   1.412       .  A
C1333      H1338   1.083       .  S
C1334      C1335   1.427       .  A
C1335      C1336   1.403       .  A
C1335      C1339   1.509       .  S
C1336      H1340   1.085       .  S
C1337      H1347   1.111       .  S
C1337      H1348   1.110       .  S
C1337      H1349   1.110       .  S
C1339      H1350   1.110       .  S
C1339      H1351   1.110       .  S
C1339      H1352   1.111       .  S
C1353      C1354   1.400       .  A
C1353      C1358   1.402       .  A
C1353      H1363   1.085       .  S
C1354      C1359   1.479       .  S
C1354      C1355   1.411       .  A
C1355      C1356   1.403       .  A
C1355      C1360   1.506       .  S
C1356      C1357   1.404       .  A
C1356      H1361   1.084       .  S
C1357      C1358   1.417       .  A
C1358      C1362   1.509       .  S
C1359      C1364   1.409       .  A
C1359      C1368   1.400       .  A
C1360      H1376   1.110       .  S
C1360      H1377   1.110       .  S
C1360      H1378   1.111       .  S
C1362      H1373   1.111       .  S
C1362      H1374   1.110       .  S
C1362      H1375   1.106       .  S
C1364      C1365   1.401       .  A
C1364      C1369   1.507       .  S
C1365      C1366   1.405       .  A
C1365      H1370   1.084       .  S
C1366      C1367   1.421       .  A
C1367      C1368   1.405       .  A
C1367      C1371   1.509       .  S
C1368      H1372   1.084       .  S
C1369      H1379   1.111       .  S
C1369      H1380   1.110       .  S
C1369      H1381   1.110       .  S
C1371      H1382   1.110       .  S
C1371      H1383   1.105       .  S
C1371      H1384   1.111       .  S
C1385      C1386   1.403       .  A
C1385      C1390   1.406       .  A
C1385      H1395   1.085       .  S
C1386      C1391   1.483       .  S
C1386      C1387   1.410       .  A
C1387      C1388   1.401       .  A
C1387      C1392   1.508       .  S
C1388      C1389   1.405       .  A
C1388      H1393   1.084       .  S
C1389      C1390   1.419       .  A
C1390      C1394   1.508       .  S
C1391      C1396   1.410       .  A
C1391      C1400   1.403       .  A
C1392      H1408   1.109       .  S
C1392      H1409   1.110       .  S
C1392      H1410   1.111       .  S
C1394      H1405   1.111       .  S
C1394      H1406   1.110       .  S
C1394      H1407   1.106       .  S
C1396      C1397   1.401       .  A
C1396      C1401   1.507       .  S
C1397      C1398   1.406       .  A
C1397      H1402   1.085       .  S
C1398      C1399   1.417       .  A
C1399      C1400   1.404       .  A
C1399      C1403   1.508       .  S
C1400      H1404   1.084       .  S
C1401      H1411   1.111       .  S
C1401      H1412   1.109       .  S
C1401      H1413   1.110       .  S
C1403      H1414   1.110       .  S
C1403      H1415   1.106       .  S
C1403      H1416   1.111       .  S
Fe1417     O1433   2.055       .  S
Fe1417     O1423   2.059       .  S
Fe1417     O1430   2.066       .  S
Fe1417     O1422   2.059       .  S
Fe1417     O1428   1.966       .  S
Fe1418     O1421   2.055       .  S
Fe1418     O1425   2.067       .  S
Fe1418     O1429   2.064       .  S
Fe1418     O1434   2.061       .  S
Fe1418     O1428   1.972       .  S
Fe1419     O1437   2.074       .  S
Fe1419     O1424   2.067       .  S
Fe1419     O1431   2.068       .  S
Fe1419     O1420   2.081       .  S
Fe1419     O1428   1.979       .  S
O1420      C1427   1.271       .  A
O1421      C1435   1.267       .  A
O1422      C1427   1.269       .  A
O1423      C1426   1.269       .  A
O1424      C1436   1.270       .  A
O1425      C1438   1.268       .  A
C1426      O1431   1.268       .  A
C1426      C2686   1.478       .  S
C1427      C2654   1.478       .  S
O1429      C1432   1.268       .  A
O1430      C1432   1.269       .  A
C1432      C2741   1.471       .  S
O1433      C1438   1.267       .  A
O1434      C1436   1.269       .  A
C1435      O1437   1.270       .  A
C1435      C2773   1.473       .  S
C1436      C2814   1.479       .  S
C1438      C2709   1.472       .  S
Fe1439     O1455   2.047       .  S
Fe1439     O1445   2.058       .  S
Fe1440     O1451   2.069       .  S
Fe1440     O1456   2.061       .  S
Fe1440     O1450   1.980       .  S
Fe1441     O1446   2.061       .  S
Fe1441     O1442   2.079       .  S
Fe1441     O1450   1.986       .  S
O1442      C1449   1.270       .  A
O1443      C1457   1.269       .  A
O1444      C1449   1.267       .  A
O1445      C1448   1.267       .  A
O1446      C1458   1.267       .  A
O1447      C1460   1.269       .  A
C1448      O1453   1.267       .  A
C1448      C2549   1.474       .  S
C1449      C2517   1.495       .  S
O1451      C1454   1.270       .  A
O1452      C1454   1.267       .  A
C1454      C2750   1.498       .  S
O1455      C1460   1.264       .  A
O1456      C1458   1.269       .  A
C1457      O1459   1.272       .  A
C1457      C2613   1.480       .  S
C1458      C2581   1.474       .  S
C1460      C2718   1.480       .  S
Fe1461     O1477   2.056       .  S
Fe1461     O1467   2.052       .  S
Fe1461     O1474   2.055       .  S
Fe1461     O1466   2.050       .  S
Fe1461     O1472   1.971       .  S
Fe1462     O1465   2.061       .  S
Fe1462     O1469   2.070       .  S
Fe1462     O1473   2.075       .  S
Fe1462     O1478   2.063       .  S
Fe1462     O1472   1.978       .  S
Fe1463     O1481   2.068       .  S
Fe1463     O1468   2.061       .  S
Fe1463     O1475   2.064       .  S
Fe1463     O1464   2.078       .  S
Fe1463     O1472   1.984       .  S
O1464      C1471   1.269       .  A
O1465      C1479   1.268       .  A
O1466      C1471   1.266       .  A
O1467      C1470   1.266       .  A
O1468      C1480   1.270       .  A
O1469      C1482   1.268       .  A
C1470      O1475   1.268       .  A
C1470      C2494   1.466       .  S
C1471      C2453   1.471       .  S
O1473      C1476   1.270       .  A
O1474      C1476   1.266       .  A
C1476      C2389   1.477       .  S
O1477      C1482   1.267       .  A
O1478      C1480   1.270       .  A
C1479      O1481   1.268       .  A
C1479      C2622   1.475       .  S
C1480      C2590   1.478       .  S
C1482      C2421   1.476       .  S
Fe1483     O1499   2.054       .  S
Fe1483     O1489   2.057       .  S
Fe1484     O1495   2.067   1_554  S
Fe1484     O1500   2.060   1_554  S
Fe1484     O1494   1.979       .  S
Fe1485     O1490   2.071       .  S
Fe1485     O1486   2.066       .  S
Fe1485     O1494   1.986   1_556  S
O1486      C1493   1.267       .  A
O1487      C1501   1.270       .  A
O1488      C1493   1.268       .  A
O1489      C1492   1.268       .  A
O1490      C1502   1.269       .  A
O1491      C1504   1.269       .  A
C1492      O1497   1.270       .  A
C1492      C2293   1.476       .  S
C1493      C2261   1.487       .  S
O1495      C1498   1.269       .  A
O1496      C1498   1.268       .  A
C1498      C2334   1.487       .  S
O1499      C1504   1.266       .  A
O1500      C1502   1.268       .  A
C1501      O1503   1.269       .  A
C1501      C2782   1.479       .  S
C1502      C2805   1.481       .  S
C1504      C2366   1.477       .  S
Fe1505     O1521   2.062       .  S
Fe1505     O1511   2.052       .  S
Fe1506     O1517   2.058   1_554  S
Fe1506     O1522   2.067   1_554  S
Fe1506     O1516   1.970   1_554  S
Fe1507     O1512   2.070   1_554  S
Fe1507     O1508   2.084   1_554  S
Fe1507     O1516   1.975   1_554  S
O1508      C1515   1.271       .  A
O1509      C1523   1.265       .  A
O1510      C1515   1.268       .  A
O1511      C1514   1.267       .  A
O1512      C1524   1.272       .  A
O1513      C1526   1.272       .  A
C1514      O1519   1.269       .  A
C1514      C2485   1.483       .  S
C1515      C2462   1.481       .  S
O1517      C1520   1.266       .  A
O1518      C1520   1.266       .  A
C1520      C2197   1.473       .  S
O1521      C1526   1.270       .  A
O1522      C1524   1.271       .  A
C1523      O1525   1.269       .  A
C1523      C2174   1.477       .  S
C1524      C2133   1.476       .  S
C1526      C2229   1.482       .  S
Fe1527     O1543   2.051       .  S
Fe1527     O1533   2.058       .  S
Fe1527     O1540   2.068       .  S
Fe1527     O1532   2.053       .  S
Fe1527     O1538   1.973       .  S
Fe1528     O1531   2.059       .  S
Fe1528     O1535   2.060       .  S
Fe1528     O1539   2.065       .  S
Fe1528     O1544   2.057       .  S
Fe1528     O1538   1.982       .  S
Fe1529     O1547   2.063       .  S
Fe1529     O1534   2.071       .  S
Fe1529     O1541   2.080       .  S
Fe1529     O1530   2.064       .  S
Fe1529     O1538   1.989       .  S
O1530      C1537   1.267       .  A
O1531      C1545   1.268       .  A
O1532      C1537   1.267       .  A
O1533      C1536   1.268       .  A
O1534      C1546   1.269       .  A
O1535      C1548   1.267       .  A
C1536      O1541   1.270       .  A
C1536      C2302   1.480       .  S
C1537      C2270   1.467       .  S
O1539      C1542   1.269       .  A
O1540      C1542   1.270       .  A
C1542      C2069   1.486       .  S
O1543      C1548   1.266       .  A
O1544      C1546   1.267       .  A
C1545      O1547   1.268       .  A
C1545      C2165   1.470       .  S
C1546      C2142   1.476       .  S
C1548      C2110   1.471       .  S
Fe1549     O1565   2.056       .  S
Fe1549     O1555   2.066       .  S
Fe1549     O1562   2.061       .  S
Fe1549     O1554   2.049       .  S
Fe1549     O1560   1.958       .  S
Fe1550     O1553   2.052       .  S
Fe1550     O1557   2.088       .  S
Fe1550     O1561   2.056       .  S
Fe1550     O1566   2.083       .  S
Fe1550     O1560   1.962       .  S
Fe1551     O1569   2.078       .  S
Fe1551     O1556   2.067       .  S
Fe1551     O1563   2.071       .  S
Fe1551     O1552   2.088       .  S
Fe1551     O1560   1.965       .  S
O1552      C1559   1.272       .  A
O1553      C1567   1.266       .  A
O1554      C1559   1.267       .  A
O1555      C1558   1.269       .  A
O1556      C1568   1.272       .  A
O1557      C1570   1.275       .  A
C1558      O1563   1.270       .  A
C1558      C1982   1.485       .  S
C1559      C1941   1.476       .  S
O1561      C1564   1.265       .  A
O1562      C1564   1.266       .  A
C1564      C2206   1.468       .  S
O1565      C1570   1.269       .  A
O1566      C1568   1.275       .  A
C1567      O1569   1.270       .  A
C1567      C2014   1.477       .  S
C1568      C2046   1.485       .  S
C1570      C2238   1.478       .  S
Fe1571     O1587   2.053       .  S
Fe1571     O1577   2.060       .  S
Fe1572     O1583   2.072       .  S
Fe1572     O1588   2.061       .  S
Fe1572     O1582   1.969   1_556  S
Fe1573     O1578   2.074   1_554  S
Fe1573     O1574   2.080   1_554  S
Fe1573     O1582   1.977       .  S
O1574      C1581   1.271       .  A
O1575      C1589   1.269       .  A
O1576      C1581   1.266       .  A
O1577      C1580   1.268       .  A
O1578      C1590   1.271       .  A
O1579      C1592   1.270       .  A
C1580      O1585   1.270       .  A
C1580      C1845   1.490       .  S
C1581      C1813   1.470       .  S
O1583      C1586   1.269       .  A
O1584      C1586   1.265       .  A
C1586      C2078   1.484       .  S
O1587      C1592   1.268       .  A
O1588      C1590   1.269       .  A
C1589      O1591   1.271       .  A
C1589      C1877   1.477       .  S
C1590      C1918   1.481       .  S
C1592      C2101   1.472       .  S
Fe1593     O1609   2.066       .  S
Fe1593     O1599   2.045       .  S
Fe1594     O1605   2.077       .  S
Fe1594     O1610   2.057       .  S
Fe1594     O1604   1.978   1_556  S
Fe1595     O1600   2.084   1_554  S
Fe1595     O1596   2.068   1_554  S
Fe1595     O1604   1.986       .  S
O1596      C1603   1.269       .  A
O1597      C1611   1.271       .  A
O1598      C1603   1.269       .  A
O1599      C1602   1.266       .  A
O1600      C1612   1.272       .  A
O1601      C1614   1.268       .  A
C1602      O1607   1.271       .  A
C1602      C2677   1.490       .  S
C1603      C2645   1.473       .  S
O1605      C1608   1.270       .  A
O1606      C1608   1.266       .  A
C1608      C1758   1.480       .  S
O1609      C1614   1.269       .  A
O1610      C1612   1.268       .  A
C1611      O1613   1.271       .  A
C1611      C2005   1.479       .  S
C1612      C2037   1.485       .  S
C1614      C1781   1.482       .  S
Fe1615     O1631   2.061       .  S
Fe1615     O1621   2.043       .  S
Fe1615     O1628   2.057       .  S
Fe1615     O1620   2.053       .  S
Fe1615     O1626   1.975       .  S
Fe1616     O1619   2.067       .  S
Fe1616     O1623   2.063       .  S
Fe1616     O1627   2.075       .  S
Fe1616     O1632   2.058       .  S
Fe1616     O1626   1.981       .  S
Fe1617     O1635   2.071       .  S
Fe1617     O1622   2.081       .  S
Fe1617     O1629   2.085       .  S
Fe1617     O1618   2.075       .  S
Fe1617     O1626   1.989       .  S
O1618      C1625   1.269       .  A
O1619      C1633   1.271       .  A
O1620      C1625   1.267       .  A
O1621      C1624   1.266       .  A
O1622      C1634   1.271       .  A
O1623      C1636   1.266       .  A
C1624      O1629   1.272       .  A
C1624      C2558   1.474       .  S
C1625      C2526   1.477       .  S
O1627      C1630   1.271       .  A
O1628      C1630   1.269       .  A
C1630      C1749   1.484       .  S
O1631      C1636   1.265       .  A
O1632      C1634   1.268       .  A
C1633      O1635   1.270       .  A
C1633      C1886   1.485       .  S
C1634      C1909   1.487       .  S
C1636      C1790   1.476       .  S
Fe1637     O1653   2.061       .  S
Fe1637     O1643   2.068       .  S
Fe1638     O1649   2.056   1_554  S
Fe1638     O1654   2.062   1_554  S
Fe1638     O1648   1.967       .  S
Fe1639     O1644   2.070   1_554  S
Fe1639     O1640   2.081   1_554  S
Fe1639     O1648   1.976       .  S
O1640      C1647   1.271       .  A
O1641      C1655   1.266       .  A
O1642      C1647   1.268       .  A
O1643      C1646   1.269       .  A
O1644      C1656   1.271       .  A
O1645      C1658   1.269       .  A
C1646      O1651   1.269       .  A
C1646      C1973   1.474       .  S
C1647      C1950   1.474       .  S
O1649      C1652   1.266       .  A
O1650      C1652   1.270       .  A
C1652      C2398   1.480       .  S
O1653      C1658   1.269       .  A
O1654      C1656   1.269       .  A
C1655      O1657   1.271       .  A
C1655      C1717   1.483       .  S
C1656      C1685   1.480       .  S
C1658      C2430   1.474       .  S
Fe1659     O1675   2.051       .  S
Fe1659     O1665   2.071       .  S
Fe1659     O1672   2.068       .  S
Fe1659     O1664   2.046       .  S
Fe1659     O1670   1.959       .  S
Fe1660     O1663   2.057       .  S
Fe1660     O1667   2.080       .  S
Fe1660     O1671   2.060       .  S
Fe1660     O1676   2.071       .  S
Fe1660     O1670   1.960       .  S
Fe1661     O1679   2.076       .  S
Fe1661     O1666   2.059       .  S
Fe1661     O1673   2.065       .  S
Fe1661     O1662   2.083       .  S
Fe1661     O1670   1.967       .  S
O1662      C1669   1.272       .  A
O1663      C1677   1.269       .  A
O1664      C1669   1.267       .  A
O1665      C1668   1.269       .  A
O1666      C1678   1.269       .  A
O1667      C1680   1.273       .  A
C1668      O1673   1.268       .  A
C1668      C1854   1.474       .  S
C1669      C1822   1.472       .  S
O1671      C1674   1.267       .  A
O1672      C1674   1.267       .  A
C1674      C2325   1.477       .  S
O1675      C1680   1.269       .  A
O1676      C1678   1.270       .  A
C1677      O1679   1.271       .  A
C1677      C1726   1.476       .  S
C1678      C1694   1.471       .  S
C1680      C2357   1.478       .  S
C1681      C1682   1.400       .  A
C1681      C1686   1.401       .  A
C1681      H1691   1.085       .  S
C1682      C1687   1.481       .  S
C1682      C1683   1.410       .  A
C1683      C1684   1.405       .  A
C1683      C1688   1.506       .  S
C1684      C1685   1.405       .  A
C1684      H1689   1.084       .  S
C1685      C1686   1.419       .  A
C1686      C1690   1.509       .  S
C1687      C1692   1.412       .  A
C1687      C1696   1.401       .  A
C1688      H1704   1.110       .  S
C1688      H1705   1.110       .  S
C1688      H1706   1.111       .  S
C1690      H1701   1.110       .  S
C1690      H1702   1.111       .  S
C1690      H1703   1.106       .  S
C1692      C1693   1.404       .  A
C1692      C1697   1.507       .  S
C1693      C1694   1.403       .  A
C1693      H1698   1.085       .  S
C1694      C1695   1.415       .  A
C1695      C1696   1.402       .  A
C1695      C1699   1.509       .  S
C1696      H1700   1.085       .  S
C1697      H1707   1.111       .  S
C1697      H1708   1.109       .  S
C1697      H1709   1.110       .  S
C1699      H1710   1.111       .  S
C1699      H1711   1.107       .  S
C1699      H1712   1.110       .  S
C1713      C1714   1.400       .  A
C1713      C1718   1.404       .  A
C1713      H1723   1.084       .  S
C1714      C1719   1.481       .  S
C1714      C1715   1.410       .  A
C1715      C1716   1.404       .  A
C1715      C1720   1.506       .  S
C1716      C1717   1.406       .  A
C1716      H1721   1.084       .  S
C1717      C1718   1.419       .  A
C1718      C1722   1.509       .  S
C1719      C1724   1.410       .  A
C1719      C1728   1.401       .  A
C1720      H1736   1.110       .  S
C1720      H1737   1.110       .  S
C1720      H1738   1.111       .  S
C1722      H1733   1.111       .  S
C1722      H1734   1.109       .  S
C1722      H1735   1.111       .  S
C1724      C1725   1.404       .  A
C1724      C1729   1.506       .  S
C1725      C1726   1.405       .  A
C1725      H1730   1.084       .  S
C1726      C1727   1.416       .  A
C1727      C1728   1.403       .  A
C1727      C1731   1.509       .  S
C1728      H1732   1.084       .  S
C1729      H1739   1.111       .  S
C1729      H1740   1.110       .  S
C1729      H1741   1.110       .  S
C1731      H1742   1.110       .  S
C1731      H1743   1.107       .  S
C1731      H1744   1.111       .  S
C1745      C1746   1.401       .  A
C1745      C1750   1.405       .  A
C1745      H1755   1.085       .  S
C1746      C1751   1.480       .  S
C1746      C1747   1.409       .  A
C1747      C1748   1.402       .  A
C1747      C1752   1.508       .  S
C1748      C1749   1.408       .  A
C1748      H1753   1.084       .  S
C1749      C1750   1.420       .  A
C1750      C1754   1.508       .  S
C1751      C1756   1.409       .  A
C1751      C1760   1.402       .  A
C1752      H1768   1.110       .  S
C1752      H1769   1.109       .  S
C1752      H1770   1.111       .  S
C1754      H1765   1.111       .  S
C1754      H1766   1.110       .  S
C1754      H1767   1.106       .  S
C1756      C1757   1.401       .  A
C1756      C1761   1.508       .  S
C1757      C1758   1.407       .  A
C1757      H1762   1.084       .  S
C1758      C1759   1.418       .  A
C1759      C1760   1.405       .  A
C1759      C1763   1.508       .  S
C1760      H1764   1.085       .  S
C1761      H1771   1.111       .  S
C1761      H1772   1.110       .  S
C1761      H1773   1.109       .  S
C1763      H1774   1.110       .  S
C1763      H1775   1.106       .  S
C1763      H1776   1.111       .  S
C1777      C1778   1.401       .  A
C1777      C1782   1.407       .  A
C1777      H1787   1.084       .  S
C1778      C1783   1.481       .  S
C1778      C1779   1.410       .  A
C1779      C1780   1.402       .  A
C1779      C1784   1.507       .  S
C1780      C1781   1.404       .  A
C1780      H1785   1.084       .  S
C1781      C1782   1.418       .  A
C1782      C1786   1.507       .  S
C1783      C1788   1.411       .  A
C1783      C1792   1.400       .  A
C1784      H1800   1.110       .  S
C1784      H1801   1.110       .  S
C1784      H1802   1.111       .  S
C1786      H1797   1.111       .  S
C1786      H1798   1.111       .  S
C1786      H1799   1.110       .  S
C1788      C1789   1.403       .  A
C1788      C1793   1.506       .  S
C1789      C1790   1.404       .  A
C1789      H1794   1.085       .  S
C1790      C1791   1.418       .  A
C1791      C1792   1.404       .  A
C1791      C1795   1.509       .  S
C1792      H1796   1.085       .  S
C1793      H1803   1.111       .  S
C1793      H1804   1.110       .  S
C1793      H1805   1.110       .  S
C1795      H1806   1.110       .  S
C1795      H1807   1.106       .  S
C1795      H1808   1.111       .  S
C1809      C1810   1.400       .  A
C1809      C1814   1.399       .  A
C1809      H1819   1.085       .  S
C1810      C1815   1.475   1_545  S
C1810      C1811   1.409       .  A
C1811      C1812   1.404       .  A
C1811      C1816   1.506   1_545  S
C1812      C1813   1.404       .  A
C1812      H1817   1.084       .  S
C1813      C1814   1.415       .  A
C1814      C1818   1.509       .  S
C1815      C1820   1.409       .  A
C1815      C1824   1.400       .  A
C1816      H1832   1.110       .  S
C1816      H1833   1.110       .  S
C1816      H1834   1.111       .  S
C1818      H1829   1.111       .  S
C1818      H1830   1.110       .  S
C1818      H1831   1.108       .  S
C1820      C1821   1.403       .  A
C1820      C1825   1.506       .  S
C1821      C1822   1.404       .  A
C1821      H1826   1.084       .  S
C1822      C1823   1.416       .  A
C1823      C1824   1.400       .  A
C1823      C1827   1.509       .  S
C1824      H1828   1.085       .  S
C1825      H1835   1.111       .  S
C1825      H1836   1.110   1_565  S
C1825      H1837   1.110   1_565  S
C1827      H1838   1.110       .  S
C1827      H1839   1.108       .  S
C1827      H1840   1.111       .  S
C1841      C1842   1.401       .  A
C1841      C1846   1.410       .  A
C1841      H1851   1.084       .  S
C1842      C1847   1.483   1_545  S
C1842      C1843   1.409       .  A
C1843      C1844   1.400       .  A
C1843      C1848   1.509       .  S
C1844      C1845   1.408       .  A
C1844      H1849   1.084       .  S
C1845      C1846   1.423       .  A
C1846      C1850   1.508       .  S
C1847      C1852   1.410       .  A
C1847      C1856   1.403       .  A
C1848      H1864   1.110   1_545  S
C1848      H1865   1.109       .  S
C1848      H1866   1.111       .  S
C1850      H1861   1.110       .  S
C1850      H1862   1.111       .  S
C1850      H1863   1.104       .  S
C1852      C1853   1.403       .  A
C1852      C1857   1.507   1_565  S
C1853      C1854   1.404       .  A
C1853      H1858   1.084       .  S
C1854      C1855   1.416       .  A
C1855      C1856   1.405       .  A
C1855      C1859   1.508       .  S
C1856      H1860   1.084       .  S
C1857      H1867   1.111       .  S
C1857      H1868   1.110       .  S
C1857      H1869   1.109       .  S
C1859      H1870   1.110       .  S
C1859      H1871   1.107       .  S
C1859      H1872   1.110       .  S
C1873      C1874   1.400       .  A
C1873      C1878   1.403       .  A
C1873      H1883   1.085       .  S
C1874      C1879   1.482       .  S
C1874      C1875   1.411       .  A
C1875      C1876   1.405       .  A
C1875      C1880   1.506       .  S
C1876      C1877   1.404       .  A
C1876      H1881   1.084       .  S
C1877      C1878   1.419       .  A
C1878      C1882   1.509       .  S
C1879      C1884   1.410       .  A
C1879      C1888   1.400       .  A
C1880      H1896   1.110       .  S
C1880      H1897   1.110       .  S
C1880      H1898   1.111       .  S
C1882      H1893   1.111       .  S
C1882      H1894   1.110       .  S
C1882      H1895   1.106       .  S
C1884      C1885   1.403       .  A
C1884      C1889   1.506       .  S
C1885      C1886   1.406       .  A
C1885      H1890   1.084       .  S
C1886      C1887   1.419       .  A
C1887      C1888   1.406       .  A
C1887      C1891   1.507       .  S
C1888      H1892   1.084       .  S
C1889      H1899   1.111       .  S
C1889      H1900   1.110       .  S
C1889      H1901   1.110       .  S
C1891      H1902   1.111       .  S
C1891      H1903   1.110       .  S
C1891      H1904   1.111       .  S
C1905      C1906   1.403       .  A
C1905      C1910   1.407       .  A
C1905      H1915   1.085       .  S
C1906      C1911   1.485       .  S
C1906      C1907   1.409       .  A
C1907      C1908   1.403       .  A
C1907      C1912   1.507       .  S
C1908      C1909   1.408       .  A
C1908      H1913   1.084       .  S
C1909      C1910   1.419       .  A
C1910      C1914   1.508       .  S
C1911      C1916   1.409       .  A
C1911      C1920   1.404       .  A
C1912      H1928   1.110       .  S
C1912      H1929   1.110       .  S
C1912      H1930   1.111       .  S
C1914      H1925   1.111       .  S
C1914      H1926   1.110       .  S
C1914      H1927   1.106       .  S
C1916      C1917   1.401       .  A
C1916      C1921   1.507       .  S
C1917      C1918   1.405       .  A
C1917      H1922   1.085       .  S
C1918      C1919   1.418       .  A
C1919      C1920   1.408       .  A
C1919      C1923   1.509       .  S
C1920      H1924   1.084       .  S
C1921      H1931   1.111       .  S
C1921      H1932   1.110       .  S
C1921      H1933   1.110       .  S
C1923      H1934   1.110       .  S
C1923      H1935   1.106       .  S
C1923      H1936   1.111       .  S
C1937      C1938   1.400       .  A
C1937      C1942   1.401       .  A
C1937      H1947   1.085       .  S
C1938      C1943   1.479       .  S
C1938      C1939   1.410       .  A
C1939      C1940   1.404       .  A
C1939      C1944   1.505       .  S
C1940      C1941   1.405       .  A
C1940      H1945   1.084       .  S
C1941      C1942   1.416       .  A
C1942      C1946   1.507       .  S
C1943      C1948   1.410       .  A
C1943      C1952   1.401   1_655  A
C1944      H1960   1.110   1_655  S
C1944      H1961   1.110   1_655  S
C1944      H1962   1.111       .  S
C1946      H1957   1.111       .  S
C1946      H1958   1.110       .  S
C1946      H1959   1.108       .  S
C1948      C1949   1.405   1_655  A
C1948      C1953   1.506       .  S
C1949      C1950   1.405       .  A
C1949      H1954   1.084       .  S
C1950      C1951   1.415       .  A
C1951      C1952   1.401       .  A
C1951      C1955   1.509       .  S
C1952      H1956   1.085       .  S
C1953      H1963   1.111       .  S
C1953      H1964   1.110       .  S
C1953      H1965   1.110       .  S
C1955      H1966   1.110       .  S
C1955      H1967   1.108       .  S
C1955      H1968   1.110       .  S
C1969      C1970   1.403       .  A
C1969      C1974   1.405       .  A
C1969      H1979   1.084       .  S
C1970      C1975   1.481   1_455  S
C1970      C1971   1.409   1_455  A
C1971      C1972   1.403   1_655  A
C1971      C1976   1.507       .  S
C1972      C1973   1.404       .  A
C1972      H1977   1.084       .  S
C1973      C1974   1.415       .  A
C1974      C1978   1.508       .  S
C1975      C1980   1.409       .  A
C1975      C1984   1.401       .  A
C1976      H1992   1.110       .  S
C1976      H1993   1.109       .  S
C1976      H1994   1.111       .  S
C1978      H1989   1.110       .  S
C1978      H1990   1.110       .  S
C1978      H1991   1.107       .  S
C1980      C1981   1.399       .  A
C1980      C1985   1.509       .  S
C1981      C1982   1.407       .  A
C1981      H1986   1.084       .  S
C1982      C1983   1.421       .  A
C1983      C1984   1.408       .  A
C1983      C1987   1.508       .  S
C1984      H1988   1.084       .  S
C1985      H1995   1.111       .  S
C1985      H1996   1.110   1_655  S
C1985      H1997   1.109       .  S
C1987      H1998   1.111       .  S
C1987      H1999   1.105       .  S
C1987      H2000   1.110       .  S
C2001      C2002   1.400       .  A
C2001      C2006   1.404       .  A
C2001      H2011   1.085       .  S
C2002      C2007   1.482       .  S
C2002      C2003   1.411       .  A
C2003      C2004   1.404       .  A
C2003      C2008   1.507       .  S
C2004      C2005   1.404       .  A
C2004      H2009   1.084       .  S
C2005      C2006   1.419       .  A
C2006      C2010   1.509       .  S
C2007      C2012   1.411       .  A
C2007      C2016   1.400       .  A
C2008      H2024   1.110       .  S
C2008      H2025   1.110       .  S
C2008      H2026   1.111       .  S
C2010      H2021   1.111       .  S
C2010      H2022   1.110       .  S
C2010      H2023   1.106       .  S
C2012      C2013   1.404       .  A
C2012      C2017   1.506       .  S
C2013      C2014   1.405       .  A
C2013      H2018   1.084       .  S
C2014      C2015   1.419       .  A
C2015      C2016   1.403       .  A
C2015      C2019   1.509       .  S
C2016      H2020   1.085       .  S
C2017      H2027   1.111       .  S
C2017      H2028   1.110       .  S
C2017      H2029   1.110       .  S
C2019      H2030   1.110       .  S
C2019      H2031   1.105       .  S
C2019      H2032   1.111       .  S
C2033      C2034   1.404       .  A
C2033      C2038   1.409       .  A
C2033      H2043   1.084       .  S
C2034      C2039   1.488       .  S
C2034      C2035   1.411       .  A
C2035      C2036   1.402       .  A
C2035      C2040   1.507       .  S
C2036      C2037   1.406       .  A
C2036      H2041   1.084       .  S
C2037      C2038   1.419       .  A
C2038      C2042   1.508       .  S
C2039      C2044   1.411       .  A
C2039      C2048   1.403       .  A
C2040      H2056   1.110       .  S
C2040      H2057   1.110       .  S
C2040      H2058   1.111       .  S
C2042      H2053   1.111       .  S
C2042      H2054   1.110       .  S
C2042      H2055   1.106       .  S
C2044      C2045   1.404       .  A
C2044      C2049   1.507       .  S
C2045      C2046   1.405       .  A
C2045      H2050   1.084       .  S
C2046      C2047   1.420       .  A
C2047      C2048   1.407       .  A
C2047      C2051   1.509       .  S
C2048      H2052   1.085       .  S
C2049      H2059   1.111       .  S
C2049      H2060   1.110       .  S
C2049      H2061   1.110       .  S
C2051      H2062   1.110       .  S
C2051      H2063   1.106       .  S
C2051      H2064   1.111       .  S
C2065      C2066   1.399       .  A
C2065      C2070   1.404       .  A
C2065      H2075   1.084       .  S
C2066      C2071   1.481       .  S
C2066      C2067   1.410       .  A
C2067      C2068   1.405       .  A
C2067      C2072   1.506       .  S
C2068      C2069   1.407       .  A
C2068      H2073   1.083       .  S
C2069      C2070   1.419       .  A
C2070      C2074   1.508       .  S
C2071      C2076   1.411       .  A
C2071      C2080   1.397       .  A
C2072      H2088   1.110       .  S
C2072      H2089   1.110       .  S
C2072      H2090   1.111       .  S
C2074      H2085   1.111       .  S
C2074      H2086   1.109       .  S
C2074      H2087   1.111       .  S
C2076      C2077   1.407       .  A
C2076      C2081   1.505       .  S
C2077      C2078   1.407       .  A
C2077      H2082   1.084       .  S
C2078      C2079   1.421       .  A
C2079      C2080   1.401       .  A
C2079      C2083   1.509       .  S
C2080      H2084   1.085       .  S
C2081      H2091   1.111       .  S
C2081      H2092   1.110       .  S
C2081      H2093   1.110       .  S
C2083      H2094   1.109       .  S
C2083      H2095   1.109       .  S
C2083      H2096   1.111       .  S
C2097      C2098   1.398       .  A
C2097      C2102   1.401       .  A
C2097      H2107   1.085       .  S
C2098      C2103   1.473       .  S
C2098      C2099   1.409       .  A
C2099      C2100   1.401       .  A
C2099      C2104   1.507       .  S
C2100      C2101   1.404       .  A
C2100      H2105   1.084       .  S
C2101      C2102   1.420       .  A
C2102      C2106   1.510       .  S
C2103      C2108   1.408       .  A
C2103      C2112   1.400       .  A
C2104      H2120   1.110       .  S
C2104      H2121   1.110       .  S
C2104      H2122   1.111       .  S
C2106      H2117   1.111       .  S
C2106      H2118   1.110       .  S
C2106      H2119   1.105       .  S
C2108      C2109   1.398       .  A
C2108      C2113   1.507       .  S
C2109      C2110   1.403       .  A
C2109      H2114   1.081       .  S
C2110      C2111   1.418       .  A
C2111      C2112   1.402       .  A
C2111      C2115   1.509       .  S
C2112      H2116   1.085       .  S
C2113      H2123   1.111       .  S
C2113      H2124   1.110       .  S
C2113      H2125   1.110       .  S
C2115      H2126   1.110       .  S
C2115      H2127   1.105       .  S
C2115      H2128   1.111       .  S
C2129      C2130   1.400       .  A
C2129      C2134   1.404       .  A
C2129      H2139   1.084       .  S
C2130      C2135   1.479       .  S
C2130      C2131   1.410       .  A
C2131      C2132   1.402       .  A
C2131      C2136   1.507       .  S
C2132      C2133   1.404       .  A
C2132      H2137   1.084       .  S
C2133      C2134   1.418       .  A
C2134      C2138   1.508       .  S
C2135      C2140   1.409       .  A
C2135      C2144   1.401       .  A
C2136      H2152   1.110       .  S
C2136      H2153   1.110       .  S
C2136      H2154   1.111       .  S
C2138      H2149   1.110       .  S
C2138      H2150   1.111       .  S
C2138      H2151   1.106       .  S
C2140      C2141   1.403       .  A
C2140      C2145   1.506       .  S
C2141      C2142   1.404       .  A
C2141      H2146   1.084       .  S
C2142      C2143   1.417       .  A
C2143      C2144   1.403       .  A
C2143      C2147   1.509       .  S
C2144      H2148   1.085       .  S
C2145      H2155   1.111       .  S
C2145      H2156   1.110       .  S
C2145      H2157   1.110       .  S
C2147      H2158   1.111       .  S
C2147      H2159   1.107       .  S
C2147      H2160   1.110       .  S
C2161      C2162   1.400       .  A
C2161      C2166   1.401       .  A
C2161      H2171   1.084       .  S
C2162      C2167   1.476       .  S
C2162      C2163   1.410       .  A
C2163      C2164   1.403       .  A
C2163      C2168   1.506       .  S
C2164      C2165   1.403       .  A
C2164      H2169   1.084       .  S
C2165      C2166   1.415       .  A
C2166      C2170   1.509       .  S
C2167      C2172   1.408       .  A
C2167      C2176   1.401       .  A
C2168      H2184   1.110       .  S
C2168      H2185   1.110       .  S
C2168      H2186   1.111       .  S
C2170      H2181   1.111       .  S
C2170      H2182   1.110       .  S
C2170      H2183   1.108       .  S
C2172      C2173   1.401       .  A
C2172      C2177   1.506       .  S
C2173      C2174   1.405       .  A
C2173      H2178   1.084       .  S
C2174      C2175   1.417       .  A
C2175      C2176   1.403       .  A
C2175      C2179   1.509       .  S
C2176      H2180   1.084       .  S
C2177      H2187   1.111       .  S
C2177      H2188   1.110       .  S
C2177      H2189   1.110       .  S
C2179      H2190   1.111       .  S
C2179      H2191   1.109       .  S
C2179      H2192   1.111       .  S
C2193      C2194   1.400       .  A
C2193      C2198   1.399       .  A
C2193      H2203   1.085       .  S
C2194      C2199   1.475       .  S
C2194      C2195   1.408       .  A
C2195      C2196   1.402       .  A
C2195      C2200   1.505       .  S
C2196      C2197   1.405       .  A
C2196      H2201   1.084       .  S
C2197      C2198   1.417       .  A
C2198      C2202   1.507       .  S
C2199      C2204   1.409       .  A
C2199      C2208   1.401       .  A
C2200      H2216   1.110       .  S
C2200      H2217   1.110       .  S
C2200      H2218   1.111       .  S
C2202      H2213   1.110       .  S
C2202      H2214   1.111       .  S
C2202      H2215   1.105       .  S
C2204      C2205   1.399       .  A
C2204      C2209   1.507       .  S
C2205      C2206   1.401       .  A
C2205      H2210   1.082       .  S
C2206      C2207   1.416       .  A
C2207      C2208   1.403       .  A
C2207      C2211   1.508       .  S
C2208      H2212   1.085       .  S
C2209      H2219   1.111       .  S
C2209      H2220   1.110       .  S
C2209      H2221   1.110       .  S
C2211      H2222   1.111       .  S
C2211      H2223   1.107       .  S
C2211      H2224   1.110       .  S
C2225      C2226   1.401       .  A
C2225      C2230   1.405       .  A
C2225      H2235   1.084       .  S
C2226      C2231   1.482       .  S
C2226      C2227   1.409       .  A
C2227      C2228   1.404       .  A
C2227      C2232   1.506       .  S
C2228      C2229   1.406       .  A
C2228      H2233   1.084       .  S
C2229      C2230   1.419       .  A
C2230      C2234   1.509       .  S
C2231      C2236   1.410       .  A
C2231      C2240   1.401       .  A
C2232      H2248   1.110       .  S
C2232      H2249   1.110       .  S
C2232      H2250   1.111       .  S
C2234      H2245   1.111       .  S
C2234      H2246   1.110       .  S
C2234      H2247   1.106       .  S
C2236      C2237   1.404       .  A
C2236      C2241   1.506       .  S
C2237      C2238   1.404       .  A
C2237      H2242   1.084       .  S
C2238      C2239   1.418       .  A
C2239      C2240   1.405       .  A
C2239      C2243   1.509       .  S
C2240      H2244   1.084       .  S
C2241      H2251   1.111       .  S
C2241      H2252   1.110       .  S
C2241      H2253   1.110       .  S
C2243      H2254   1.110       .  S
C2243      H2255   1.107       .  S
C2243      H2256   1.111       .  S
C2257      C2258   1.400       .  A
C2257      C2262   1.407       .  A
C2257      H2267   1.084       .  S
C2258      C2263   1.475   1_565  S
C2258      C2259   1.408       .  A
C2259      C2260   1.397       .  A
C2259      C2264   1.509       .  S
C2260      C2261   1.408       .  A
C2260      H2265   1.084       .  S
C2261      C2262   1.421       .  A
C2262      C2266   1.507       .  S
C2263      C2268   1.411       .  A
C2263      C2272   1.399   1_545  A
C2264      H2280   1.110       .  S
C2264      H2281   1.110   1_565  S
C2264      H2282   1.111       .  S
C2266      H2277   1.110       .  S
C2266      H2278   1.111       .  S
C2266      H2279   1.110       .  S
C2268      C2269   1.403       .  A
C2268      C2273   1.506       .  S
C2269      C2270   1.401       .  A
C2269      H2274   1.084       .  S
C2270      C2271   1.416       .  A
C2271      C2272   1.398   1_545  A
C2271      C2275   1.510       .  S
C2272      H2276   1.085       .  S
C2273      H2283   1.111       .  S
C2273      H2284   1.110       .  S
C2273      H2285   1.110       .  S
C2275      H2286   1.110   1_545  S
C2275      H2287   1.108       .  S
C2275      H2288   1.111   1_545  S
C2289      C2290   1.402       .  A
C2289      C2294   1.406       .  A
C2289      H2299   1.085       .  S
C2290      C2295   1.481   1_565  S
C2290      C2291   1.411       .  A
C2291      C2292   1.401       .  A
C2291      C2296   1.508       .  S
C2292      C2293   1.402       .  A
C2292      H2297   1.082       .  S
C2293      C2294   1.418       .  A
C2294      C2298   1.508       .  S
C2295      C2300   1.410       .  A
C2295      C2304   1.400       .  A
C2296      H2312   1.110       .  S
C2296      H2313   1.109       .  S
C2296      H2314   1.111       .  S
C2298      H2309   1.110       .  S
C2298      H2310   1.110       .  S
C2298      H2311   1.106       .  S
C2300      C2301   1.408       .  A
C2300      C2305   1.505   1_545  S
C2301      C2302   1.407       .  A
C2301      H2306   1.084       .  S
C2302      C2303   1.415       .  A
C2303      C2304   1.400       .  A
C2303      C2307   1.506       .  S
C2304      H2308   1.085       .  S
C2305      H2315   1.111       .  S
C2305      H2316   1.110       .  S
C2305      H2317   1.109       .  S
C2307      H2318   1.111       .  S
C2307      H2319   1.108       .  S
C2307      H2320   1.110       .  S
C2321      C2322   1.399       .  A
C2321      C2326   1.402       .  A
C2321      H2331   1.085       .  S
C2322      C2327   1.478       .  S
C2322      C2323   1.410       .  A
C2323      C2324   1.404       .  A
C2323      C2328   1.506       .  S
C2324      C2325   1.404       .  A
C2324      H2329   1.085       .  S
C2325      C2326   1.417       .  A
C2326      C2330   1.509       .  S
C2327      C2332   1.408       .  A
C2327      C2336   1.399       .  A
C2328      H2344   1.110       .  S
C2328      H2345   1.110       .  S
C2328      H2346   1.111       .  S
C2330      H2341   1.111       .  S
C2330      H2342   1.109       .  S
C2330      H2343   1.111       .  S
C2332      C2333   1.403       .  A
C2332      C2337   1.506       .  S
C2333      C2334   1.408       .  A
C2333      H2338   1.084       .  S
C2334      C2335   1.420       .  A
C2335      C2336   1.403       .  A
C2335      C2339   1.508       .  S
C2336      H2340   1.085       .  S
C2337      H2347   1.111       .  S
C2337      H2348   1.110       .  S
C2337      H2349   1.110       .  S
C2339      H2350   1.109       .  S
C2339      H2351   1.111       .  S
C2339      H2352   1.111       .  S
C2353      C2354   1.401       .  A
C2353      C2358   1.403       .  A
C2353      H2363   1.084       .  S
C2354      C2359   1.478       .  S
C2354      C2355   1.408       .  A
C2355      C2356   1.402       .  A
C2355      C2360   1.507       .  S
C2356      C2357   1.406       .  A
C2356      H2361   1.084       .  S
C2357      C2358   1.418       .  A
C2358      C2362   1.509       .  S
C2359      C2364   1.410       .  A
C2359      C2368   1.399       .  A
C2360      H2376   1.110       .  S
C2360      H2377   1.110       .  S
C2360      H2378   1.111       .  S
C2362      H2373   1.111       .  S
C2362      H2374   1.110       .  S
C2362      H2375   1.106       .  S
C2364      C2365   1.404       .  A
C2364      C2369   1.506       .  S
C2365      C2366   1.404       .  A
C2365      H2370   1.084       .  S
C2366      C2367   1.418       .  A
C2367      C2368   1.402       .  A
C2367      C2371   1.507       .  S
C2368      H2372   1.084       .  S
C2369      H2379   1.110       .  S
C2369      H2380   1.110       .  S
C2369      H2381   1.110       .  S
C2371      H2382   1.110       .  S
C2371      H2383   1.106       .  S
C2371      H2384   1.110       .  S
C2385      C2386   1.400       .  A
C2385      C2390   1.401       .  A
C2385      H2395   1.085       .  S
C2386      C2391   1.483       .  S
C2386      C2387   1.412       .  A
C2387      C2388   1.406       .  A
C2387      C2392   1.506       .  S
C2388      C2389   1.404       .  A
C2388      H2393   1.084       .  S
C2389      C2390   1.417       .  A
C2390      C2394   1.508       .  S
C2391      C2396   1.412       .  A
C2391      C2400   1.400       .  A
C2392      H2408   1.110       .  S
C2392      H2409   1.110       .  S
C2392      H2410   1.111       .  S
C2394      H2405   1.110       .  S
C2394      H2406   1.111       .  S
C2394      H2407   1.107       .  S
C2396      C2397   1.404       .  A
C2396      C2401   1.507       .  S
C2397      C2398   1.404       .  A
C2397      H2402   1.084       .  S
C2398      C2399   1.420       .  A
C2399      C2400   1.404       .  A
C2399      C2403   1.510       .  S
C2400      H2404   1.085       .  S
C2401      H2411   1.111       .  S
C2401      H2412   1.110       .  S
C2401      H2413   1.110       .  S
C2403      H2414   1.111       .  S
C2403      H2415   1.105       .  S
C2403      H2416   1.110       .  S
C2417      C2418   1.400       .  A
C2417      C2422   1.401       .  A
C2417      H2427   1.085       .  S
C2418      C2423   1.478       .  S
C2418      C2419   1.410       .  A
C2419      C2420   1.404       .  A
C2419      C2424   1.506       .  S
C2420      C2421   1.405       .  A
C2420      H2425   1.084       .  S
C2421      C2422   1.417       .  A
C2422      C2426   1.509       .  S
C2423      C2428   1.409       .  A
C2423      C2432   1.401       .  A
C2424      H2440   1.110       .  S
C2424      H2441   1.110       .  S
C2424      H2442   1.111       .  S
C2426      H2437   1.111       .  S
C2426      H2438   1.110       .  S
C2426      H2439   1.107       .  S
C2428      C2429   1.402       .  A
C2428      C2433   1.506       .  S
C2429      C2430   1.405       .  A
C2429      H2434   1.084       .  S
C2430      C2431   1.416       .  A
C2431      C2432   1.403       .  A
C2431      C2435   1.509       .  S
C2432      H2436   1.084       .  S
C2433      H2443   1.111       .  S
C2433      H2444   1.110       .  S
C2433      H2445   1.110       .  S
C2435      H2446   1.110       .  S
C2435      H2447   1.107       .  S
C2435      H2448   1.111       .  S
C2449      C2450   1.402       .  A
C2449      C2454   1.403       .  A
C2449      H2459   1.084   1_455  S
C2450      C2455   1.481   1_455  S
C2450      C2451   1.412       .  A
C2451      C2452   1.402       .  A
C2451      C2456   1.507       .  S
C2452      C2453   1.402       .  A
C2452      H2457   1.083       .  S
C2453      C2454   1.416       .  A
C2454      C2458   1.508       .  S
C2455      C2460   1.411       .  A
C2455      C2464   1.402       .  A
C2456      H2472   1.110       .  S
C2456      H2473   1.110       .  S
C2456      H2474   1.111       .  S
C2458      H2469   1.111   1_455  S
C2458      H2470   1.110       .  S
C2458      H2471   1.107       .  S
C2460      C2461   1.399       .  A
C2460      C2465   1.508       .  S
C2461      C2462   1.403       .  A
C2461      H2466   1.081       .  S
C2462      C2463   1.418       .  A
C2463      C2464   1.407       .  A
C2463      C2467   1.508       .  S
C2464      H2468   1.084       .  S
C2465      H2475   1.111       .  S
C2465      H2476   1.109       .  S
C2465      H2477   1.110       .  S
C2467      H2478   1.111       .  S
C2467      H2479   1.110       .  S
C2467      H2480   1.111       .  S
C2481      C2482   1.400       .  A
C2481      C2486   1.406       .  A
C2481      H2491   1.085       .  S
C2482      C2487   1.474   1_655  S
C2482      C2483   1.407       .  A
C2483      C2484   1.396       .  A
C2483      C2488   1.509       .  S
C2484      C2485   1.408       .  A
C2484      H2489   1.084       .  S
C2485      C2486   1.422       .  A
C2486      C2490   1.508       .  S
C2487      C2492   1.409   1_455  A
C2487      C2496   1.402       .  A
C2488      H2504   1.110   1_655  S
C2488      H2505   1.109       .  S
C2488      H2506   1.111       .  S
C2490      H2501   1.110       .  S
C2490      H2502   1.111       .  S
C2490      H2503   1.104       .  S
C2492      C2493   1.398   1_655  A
C2492      C2497   1.508       .  S
C2493      C2494   1.402       .  A
C2493      H2498   1.084       .  S
C2494      C2495   1.415       .  A
C2495      C2496   1.404       .  A
C2495      C2499   1.509       .  S
C2496      H2500   1.084       .  S
C2497      H2507   1.111       .  S
C2497      H2508   1.110       .  S
C2497      H2509   1.109       .  S
C2499      H2510   1.110       .  S
C2499      H2511   1.107       .  S
C2499      H2512   1.110       .  S
C2513      C2514   1.401       .  A
C2513      C2518   1.409       .  A
C2513      H2523   1.084       .  S
C2514      C2519   1.479       .  S
C2514      C2515   1.407       .  A
C2515      C2516   1.398       .  A
C2515      C2520   1.510       .  S
C2516      C2517   1.411       .  A
C2516      H2521   1.083       .  S
C2517      C2518   1.423       .  A
C2518      C2522   1.507       .  S
C2519      C2524   1.411       .  A
C2519      C2528   1.399       .  A
C2520      H2536   1.110       .  S
C2520      H2537   1.109       .  S
C2520      H2538   1.110       .  S
C2522      H2533   1.110       .  S
C2522      H2534   1.111       .  S
C2522      H2535   1.110       .  S
C2524      C2525   1.406       .  A
C2524      C2529   1.506       .  S
C2525      C2526   1.404       .  A
C2525      H2530   1.084       .  S
C2526      C2527   1.418       .  A
C2527      C2528   1.400       .  A
C2527      C2531   1.509       .  S
C2528      H2532   1.084       .  S
C2529      H2539   1.111       .  S
C2529      H2540   1.110       .  S
C2529      H2541   1.109       .  S
C2531      H2542   1.111       .  S
C2531      H2543   1.107       .  S
C2531      H2544   1.110       .  S
C2545      C2546   1.401       .  A
C2545      C2550   1.401       .  A
C2545      H2555   1.084       .  S
C2546      C2551   1.480       .  S
C2546      C2547   1.409       .  A
C2547      C2548   1.405       .  A
C2547      C2552   1.505       .  S
C2548      C2549   1.405       .  A
C2548      H2553   1.084       .  S
C2549      C2550   1.415       .  A
C2550      C2554   1.509       .  S
C2551      C2556   1.410       .  A
C2551      C2560   1.401       .  A
C2552      H2568   1.110       .  S
C2552      H2569   1.110       .  S
C2552      H2570   1.111       .  S
C2554      H2565   1.110       .  S
C2554      H2566   1.111       .  S
C2554      H2567   1.108       .  S
C2556      C2557   1.400       .  A
C2556      C2561   1.507       .  S
C2557      C2558   1.403       .  A
C2557      H2562   1.085       .  S
C2558      C2559   1.418       .  A
C2559      C2560   1.405       .  A
C2559      C2563   1.508       .  S
C2560      H2564   1.085       .  S
C2561      H2571   1.111       .  S
C2561      H2572   1.110       .  S
C2561      H2573   1.110       .  S
C2563      H2574   1.110       .  S
C2563      H2575   1.106       .  S
C2563      H2576   1.110       .  S
C2577      C2578   1.399       .  A
C2577      C2582   1.398       .  A
C2577      H2587   1.085       .  S
C2578      C2583   1.478       .  S
C2578      C2579   1.412       .  A
C2579      C2580   1.405       .  A
C2579      C2584   1.506       .  S
C2580      C2581   1.405       .  A
C2580      H2585   1.084       .  S
C2581      C2582   1.417       .  A
C2582      C2586   1.510       .  S
C2583      C2588   1.411       .  A
C2583      C2592   1.399       .  A
C2584      H2600   1.109       .  S
C2584      H2601   1.110       .  S
C2584      H2602   1.111       .  S
C2586      H2597   1.111       .  S
C2586      H2598   1.110       .  S
C2586      H2599   1.106       .  S
C2588      C2589   1.404       .  A
C2588      C2593   1.507       .  S
C2589      C2590   1.405       .  A
C2589      H2594   1.084       .  S
C2590      C2591   1.418       .  A
C2591      C2592   1.401       .  A
C2591      C2595   1.509       .  S
C2592      H2596   1.085       .  S
C2593      H2603   1.111       .  S
C2593      H2604   1.109       .  S
C2593      H2605   1.110       .  S
C2595      H2606   1.109       .  S
C2595      H2607   1.111       .  S
C2595      H2608   1.111       .  S
C2609      C2610   1.400       .  A
C2609      C2614   1.402       .  A
C2609      H2619   1.085       .  S
C2610      C2615   1.480       .  S
C2610      C2611   1.410       .  A
C2611      C2612   1.405       .  A
C2611      C2616   1.506       .  S
C2612      C2613   1.406       .  A
C2612      H2617   1.084       .  S
C2613      C2614   1.418       .  A
C2614      C2618   1.509       .  S
C2615      C2620   1.410       .  A
C2615      C2624   1.402       .  A
C2616      H2632   1.110       .  S
C2616      H2633   1.110       .  S
C2616      H2634   1.111       .  S
C2618      H2629   1.111       .  S
C2618      H2630   1.110       .  S
C2618      H2631   1.107       .  S
C2620      C2621   1.403       .  A
C2620      C2625   1.507       .  S
C2621      C2622   1.404       .  A
C2621      H2626   1.084       .  S
C2622      C2623   1.416       .  A
C2623      C2624   1.404       .  A
C2623      C2627   1.509       .  S
C2624      H2628   1.084       .  S
C2625      H2635   1.111       .  S
C2625      H2636   1.110       .  S
C2625      H2637   1.110       .  S
C2627      H2638   1.110       .  S
C2627      H2639   1.108       .  S
C2627      H2640   1.111       .  S
C2641      C2642   1.403       .  A
C2641      C2646   1.406       .  A
C2641      H2651   1.084       .  S
C2642      C2647   1.485       .  S
C2642      C2643   1.413       .  A
C2643      C2644   1.403       .  A
C2643      C2648   1.507       .  S
C2644      C2645   1.401       .  A
C2644      H2649   1.085       .  S
C2645      C2646   1.416       .  A
C2646      C2650   1.507       .  S
C2647      C2652   1.412       .  A
C2647      C2656   1.402       .  A
C2648      H2664   1.110       .  S
C2648      H2665   1.110       .  S
C2648      H2666   1.111       .  S
C2650      H2661   1.111       .  S
C2650      H2662   1.110       .  S
C2650      H2663   1.108       .  S
C2652      C2653   1.403       .  A
C2652      C2657   1.507       .  S
C2653      C2654   1.403       .  A
C2653      H2658   1.084       .  S
C2654      C2655   1.419       .  A
C2655      C2656   1.406       .  A
C2655      C2659   1.509       .  S
C2656      H2660   1.085       .  S
C2657      H2667   1.111       .  S
C2657      H2668   1.110       .  S
C2657      H2669   1.110       .  S
C2659      H2670   1.110       .  S
C2659      H2671   1.106       .  S
C2659      H2672   1.111       .  S
C2673      C2674   1.402       .  A
C2673      C2678   1.408       .  A
C2673      H2683   1.085       .  S
C2674      C2679   1.482       .  S
C2674      C2675   1.409       .  A
C2675      C2676   1.398       .  A
C2675      C2680   1.509       .  S
C2676      C2677   1.409       .  A
C2676      H2681   1.084       .  S
C2677      C2678   1.422       .  A
C2678      C2682   1.508       .  S
C2679      C2684   1.409       .  A
C2679      C2688   1.404       .  A
C2680      H2696   1.110       .  S
C2680      H2697   1.111       .  S
C2680      H2698   1.111       .  S
C2682      H2693   1.111       .  S
C2682      H2694   1.110       .  S
C2682      H2695   1.104       .  S
C2684      C2685   1.398       .  A
C2684      C2689   1.507       .  S
C2685      C2686   1.404       .  A
C2685      H2690   1.085       .  S
C2686      C2687   1.419       .  A
C2687      C2688   1.407       .  A
C2687      C2691   1.509       .  S
C2688      H2692   1.085       .  S
C2689      H2699   1.111       .  S
C2689      H2700   1.110       .  S
C2689      H2701   1.110       .  S
C2691      H2702   1.110       .  S
C2691      H2703   1.105       .  S
C2691      H2704   1.111       .  S
C2705      C2706   1.401       .  A
C2705      C2710   1.404       .  A
C2705      H2715   1.084       .  S
C2706      C2711   1.475       .  S
C2706      C2707   1.409       .  A
C2707      C2708   1.399       .  A
C2707      C2712   1.507       .  S
C2708      C2709   1.403       .  A
C2708      H2713   1.084       .  S
C2709      C2710   1.417       .  A
C2710      C2714   1.508       .  S
C2711      C2716   1.409       .  A
C2711      C2720   1.397       .  A
C2712      H2728   1.110       .  S
C2712      H2729   1.110       .  S
C2712      H2730   1.111       .  S
C2714      H2725   1.110       .  S
C2714      H2726   1.111       .  S
C2714      H2727   1.106       .  S
C2716      C2717   1.405       .  A
C2716      C2721   1.506       .  S
C2717      C2718   1.406       .  A
C2717      H2722   1.084       .  S
C2718      C2719   1.419       .  A
C2719      C2720   1.399       .  A
C2719      C2723   1.510       .  S
C2720      H2724   1.085       .  S
C2721      H2731   1.111       .  S
C2721      H2732   1.110       .  S
C2721      H2733   1.110       .  S
C2723      H2734   1.111       .  S
C2723      H2735   1.109       .  S
C2723      H2736   1.111       .  S
C2737      C2738   1.400       .  A
C2737      C2742   1.401       .  A
C2737      H2747   1.085       .  S
C2738      C2743   1.479       .  S
C2738      C2739   1.412       .  A
C2739      C2740   1.404       .  A
C2739      C2744   1.506       .  S
C2740      C2741   1.402       .  A
C2740      H2745   1.084       .  S
C2741      C2742   1.416       .  A
C2742      C2746   1.509       .  S
C2743      C2748   1.407       .  A
C2743      C2752   1.397       .  A
C2744      H2760   1.110       .  S
C2744      H2761   1.110       .  S
C2744      H2762   1.111       .  S
C2746      H2757   1.111       .  S
C2746      H2758   1.110       .  S
C2746      H2759   1.107       .  S
C2748      C2749   1.405       .  A
C2748      C2753   1.506       .  S
C2749      C2750   1.412       .  A
C2749      H2754   1.083       .  S
C2750      C2751   1.427       .  A
C2751      C2752   1.403       .  A
C2751      C2755   1.509       .  S
C2752      H2756   1.085       .  S
C2753      H2763   1.111       .  S
C2753      H2764   1.110       .  S
C2753      H2765   1.110       .  S
C2755      H2766   1.110       .  S
C2755      H2767   1.110       .  S
C2755      H2768   1.111       .  S
C2769      C2770   1.400       .  A
C2769      C2774   1.402       .  A
C2769      H2779   1.085       .  S
C2770      C2775   1.479       .  S
C2770      C2771   1.411       .  A
C2771      C2772   1.403       .  A
C2771      C2776   1.506       .  S
C2772      C2773   1.404       .  A
C2772      H2777   1.084       .  S
C2773      C2774   1.417       .  A
C2774      C2778   1.509       .  S
C2775      C2780   1.409       .  A
C2775      C2784   1.400       .  A
C2776      H2792   1.110       .  S
C2776      H2793   1.110       .  S
C2776      H2794   1.111       .  S
C2778      H2789   1.111       .  S
C2778      H2790   1.110       .  S
C2778      H2791   1.106       .  S
C2780      C2781   1.401       .  A
C2780      C2785   1.507       .  S
C2781      C2782   1.405       .  A
C2781      H2786   1.084       .  S
C2782      C2783   1.421       .  A
C2783      C2784   1.405       .  A
C2783      C2787   1.509       .  S
C2784      H2788   1.084       .  S
C2785      H2795   1.111       .  S
C2785      H2796   1.110       .  S
C2785      H2797   1.110       .  S
C2787      H2798   1.110       .  S
C2787      H2799   1.105       .  S
C2787      H2800   1.111       .  S
C2801      C2802   1.403       .  A
C2801      C2806   1.406       .  A
C2801      H2811   1.085       .  S
C2802      C2807   1.483       .  S
C2802      C2803   1.410       .  A
C2803      C2804   1.401       .  A
C2803      C2808   1.508       .  S
C2804      C2805   1.405       .  A
C2804      H2809   1.084       .  S
C2805      C2806   1.419       .  A
C2806      C2810   1.508       .  S
C2807      C2812   1.410       .  A
C2807      C2816   1.403       .  A
C2808      H2824   1.109       .  S
C2808      H2825   1.110       .  S
C2808      H2826   1.111       .  S
C2810      H2821   1.111       .  S
C2810      H2822   1.110       .  S
C2810      H2823   1.106       .  S
C2812      C2813   1.401       .  A
C2812      C2817   1.507       .  S
C2813      C2814   1.406       .  A
C2813      H2818   1.085       .  S
C2814      C2815   1.417       .  A
C2815      C2816   1.404       .  A
C2815      C2819   1.508       .  S
C2816      H2820   1.084       .  S
C2817      H2827   1.111       .  S
C2817      H2828   1.109       .  S
C2817      H2829   1.110       .  S
C2819      H2830   1.110       .  S
C2819      H2831   1.106       .  S
C2819      H2832   1.111       .  S
