geometry optimzed in LAMMPS
_audit_creation_date              2020-11-30 
_audit_creation_method            'lammps2cif' 
_symmetry_space_group_name_H-M    'P1' 
_symmetry_Int_Tables_number       1 
_symmetry_cell_setting            triclinic 
loop_ 
_symmetry_equiv_pos_as_xyz 
  x,y,z 
_cell_length_a                    62.51354941 
_cell_length_b                    62.530547584790156 
_cell_length_c                    62.54486474918926 
_cell_angle_alpha                 89.93212666471142 
_cell_angle_beta                  90.02762742703848 
_cell_angle_gamma                 90.02684758039045 
loop_ 
_atom_site_label 
_atom_site_type_symbol 
_atom_site_fract_x 
_atom_site_fract_y 
_atom_site_fract_z 
_atom_site_charge 
O1          O  0.12558272  0.07749176  0.39779491    -0.72400
O2          O  0.13053337  0.14181216  0.40344326    -0.73400
O3          O  0.09601189  0.11210048  0.39855032    -0.62000
O4          O  0.16004403  0.10701620  0.40305638    -0.70400
O5          O  0.16307332  0.11071382  0.36790447    -0.69900
O6          O  0.09871599  0.11452890  0.36326390    -0.61200
O7          O  0.13255999  0.14452737  0.36813228    -0.73700
O8          O  0.12910744  0.08085310  0.36264265    -0.72500
Cu9        Cu  0.12795114  0.10952734  0.40196419     1.04600
Cu10       Cu  0.13095860  0.11277192  0.36428816     1.04300
C11         C  0.12660347  0.06911636  0.37915509     0.93800
C12         C  0.13222751  0.15327848  0.38657239     0.93000
C13         C  0.08723387  0.11384453  0.38016315     0.85100
C14         C  0.17167258  0.10809660  0.38629868     0.91400
O15         O  0.11037505  0.89432570  0.37477172    -0.72400
O16         O  0.10952275  0.82973865  0.36978523    -0.73400
O17         O  0.07841207  0.86285162  0.36676619    -0.62000
O18         O  0.14150096  0.86133053  0.37746793    -0.70400
O19         O  0.13570719  0.85902207  0.41240184    -0.69900
O20         O  0.07220378  0.86011015  0.40160659    -0.61200
O21         O  0.10346253  0.82744036  0.40467116    -0.73700
O22         O  0.10412809  0.89135429  0.40957700    -0.72500
Cu23       Cu  0.11016948  0.86212977  0.37097094     1.04600
Cu24       Cu  0.10369434  0.85935325  0.40826892     1.04300
C25         C  0.10739198  0.90294391  0.39309127     0.93800
C26         C  0.10614284  0.81846138  0.38654468     0.93000
C27         C  0.06535280  0.86173586  0.38240307     0.85100
C28         C  0.14859976  0.86027358  0.39659539     0.91400
O29         O  0.87880316  0.08274057  0.38881095    -0.72400
O30         O  0.87962107  0.14720124  0.38538000    -0.73400
O31         O  0.91162004  0.11479282  0.38861613    -0.62000
O32         O  0.84714349  0.11528910  0.38567575    -0.70400
O33         O  0.84564337  0.11616860  0.42112148    -0.69900
O34         O  0.90979083  0.11717519  0.42396040    -0.61200
O35         O  0.87713568  0.14886684  0.42073012    -0.73700
O36         O  0.87793137  0.08457813  0.42422312    -0.72500
Cu37       Cu  0.87940673  0.11493224  0.38587149     1.04600
Cu38       Cu  0.87763102  0.11677349  0.42372022     1.04300
C39         C  0.87798288  0.07351137  0.40706583     0.93800
C40         C  0.87809294  0.15817581  0.40255541     0.93000
C41         C  0.92085276  0.11606254  0.40683418     0.85100
C42         C  0.83626888  0.11566169  0.40299421     0.91400
O43         O  0.89146945  0.86484926  0.36774239    -0.72400
O44         O  0.82844188  0.86651601  0.35517181    -0.73400
O45         O  0.86117076  0.89790750  0.36029233    -0.62000
O46         O  0.85891146  0.83347058  0.36258300    -0.70400
O47         O  0.85106671  0.83519230  0.39713697    -0.69900
O48         O  0.85524268  0.89951675  0.39522793    -0.61200
O49         O  0.82178781  0.86905187  0.38993196    -0.73700
O50         O  0.88447284  0.86561312  0.40252679    -0.72500
Cu51       Cu  0.86022569  0.86565289  0.36021593     1.04600
Cu52       Cu  0.85289314  0.86739898  0.39740074     1.04300
C53         C  0.89787441  0.86487765  0.38716246     0.93800
C54         C  0.81518049  0.86803756  0.37062372     0.93000
C55         C  0.85890971  0.90884911  0.37739379     0.85100
C56         C  0.85449327  0.82418884  0.38027369     0.91400
O57         O  0.14653560  0.35977292  0.32803343    -0.72400
O58         O  0.15925479  0.35874462  0.39115446    -0.73400
O59         O  0.14936686  0.32697920  0.36029875    -0.62000
O60         O  0.15614290  0.39130256  0.35940579    -0.70400
O61         O  0.12156174  0.39475934  0.36654722    -0.69900
O62         O  0.11469049  0.33101893  0.36675805    -0.61200
O63         O  0.12467156  0.36221337  0.39831280    -0.73700
O64         O  0.11192248  0.36337020  0.33498469    -0.72500
Cu65       Cu  0.15403660  0.35905791  0.35944504     1.04600
Cu66       Cu  0.11702696  0.36297695  0.36688171     1.04300
C67         C  0.12724497  0.36188017  0.32153819     0.93800
C68         C  0.14403395  0.36022204  0.40467965     0.93000
C69         C  0.13086917  0.31893489  0.36385927     0.85100
C70         C  0.13986128  0.40314416  0.36296297     0.91400
O71         O  0.16115567  0.32303000  0.61182669    -0.72400
O72         O  0.16490640  0.38697262  0.61361645    -0.73400
O73         O  0.16670462  0.35387020  0.64499295    -0.62000
O74         O  0.15863172  0.35603901  0.58052347    -0.70400
O75         O  0.12352480  0.35740949  0.58555210    -0.69900
O76         O  0.13152918  0.35617929  0.64891755    -0.61200
O77         O  0.12971543  0.38909941  0.61765114    -0.73700
O78         O  0.12604441  0.32441681  0.61687511    -0.72500
Cu79       Cu  0.16408748  0.35489881  0.61258230     1.04600
Cu80       Cu  0.12649884  0.35683233  0.61739345     1.04300
C81         C  0.14320195  0.31359503  0.61410654     0.93800
C82         C  0.14800656  0.39817855  0.61590686     0.93000
C83         C  0.15021038  0.35490732  0.65707760     0.85100
C84         C  0.13958897  0.35698258  0.57299224     0.91400
O85         O  0.09607934  0.58084270  0.36444423    -0.72400
O86         O  0.10043134  0.64517117  0.36282661    -0.73400
O87         O  0.10221778  0.61177321  0.33177572    -0.62000
O88         O  0.09429038  0.61401300  0.39557650    -0.70400
O89         O  0.12943726  0.61184442  0.40003953    -0.69900
O90         O  0.13732449  0.60902669  0.33631889    -0.61200
O91         O  0.13560303  0.64270635  0.36689909    -0.73700
O92         O  0.13117614  0.57850035  0.36920187    -0.72500
Cu93       Cu  0.09702401  0.61306579  0.36351020     1.04600
Cu94       Cu  0.13459754  0.61049243  0.36828640     1.04300
C95         C  0.11292656  0.56953929  0.36695709     0.93800
C96         C  0.11877812  0.65407468  0.36454783     0.93000
C97         C  0.12102636  0.60968460  0.32402319     0.85100
C98         C  0.11059303  0.61312962  0.40787705     0.91400
O99         O  0.09801925  0.60748289  0.64687890    -0.72400
O100        O  0.10716368  0.60593156  0.58294247    -0.73400
O101        O  0.10259184  0.57466147  0.61577571    -0.62000
O102        O  0.10225146  0.63863606  0.61374829    -0.70400
O103        O  0.13731151  0.63936347  0.61936413    -0.69900
O104        O  0.13776406  0.57448969  0.62056102    -0.61200
O105        O  0.14228034  0.60640049  0.58807504    -0.73700
O106        O  0.13318261  0.60772566  0.65169205    -0.72500
Cu107      Cu  0.10130800  0.60664311  0.61467881     1.04600
Cu108      Cu  0.13887946  0.60697868  0.62009899     1.04300
C109        C  0.11423269  0.60800352  0.65935056     0.93800
C110        C  0.12620910  0.60613503  0.57545461     0.93000
C111        C  0.12005690  0.56441679  0.61836211     0.85100
C112        C  0.11957470  0.64912420  0.61627850     0.91400
O113        O  0.63020561  0.10873595  0.40193722    -0.72400
O114        O  0.63271462  0.12159020  0.33883444    -0.73400
O115        O  0.66365371  0.11570544  0.37195717    -0.62000
O116        O  0.59910053  0.11476455  0.36921309    -0.70400
O117        O  0.59873655  0.14950345  0.37646279    -0.69900
O118        O  0.66278171  0.15065289  0.37810395    -0.61200
O119        O  0.63137806  0.15635255  0.34579101    -0.73700
O120        O  0.62999862  0.14349958  0.40898763    -0.72500
Cu121      Cu  0.63145311  0.11397237  0.37021640     1.04600
Cu122      Cu  0.63070677  0.15118932  0.37758652     1.04300
C123        C  0.62977456  0.12405719  0.41541578     0.93800
C124        C  0.63232216  0.14100236  0.33235833     0.93000
C125        C  0.67333352  0.13339508  0.37544635     0.85100
C126        C  0.58878533  0.13211095  0.37257815     0.91400
O127        O  0.58998804  0.11122306  0.62456620    -0.72400
O128        O  0.65382555  0.11205002  0.62398153    -0.73400
O129        O  0.62242914  0.10958269  0.65681661    -0.62000
O130        O  0.62178680  0.11440794  0.59194253    -0.70400
O131        O  0.62142299  0.14974074  0.59519085    -0.69900
O132        O  0.62103407  0.14498606  0.65887725    -0.61200
O133        O  0.65389158  0.14738414  0.62727872    -0.73700
O134        O  0.58865021  0.14660195  0.62686310    -0.72500
Cu135      Cu  0.62198620  0.11059251  0.62425267     1.04600
Cu136      Cu  0.62123541  0.14841669  0.62714100     1.04300
C137        C  0.57915465  0.12847547  0.62569950     0.93800
C138        C  0.66401127  0.12963856  0.62554573     0.93000
C139        C  0.62182448  0.12674635  0.66797559     0.85100
C140        C  0.62174218  0.13306716  0.58346144     0.91400
O141        O  0.34697556  0.09589199  0.37550788    -0.72400
O142        O  0.41115407  0.08959124  0.37599083    -0.73400
O143        O  0.37892526  0.09279247  0.40768722    -0.62000
O144        O  0.37934591  0.09263712  0.34362679    -0.70400
O145        O  0.38357184  0.12788046  0.34316570    -0.69900
O146        O  0.38204264  0.12815498  0.40767899    -0.61200
O147        O  0.41478360  0.12489294  0.37606788    -0.73700
O148        O  0.35063292  0.13117808  0.37454955    -0.72500
Cu149      Cu  0.37897566  0.09152427  0.37570992     1.04600
Cu150      Cu  0.38286252  0.12928249  0.37539287     1.04300
C151        C  0.33868965  0.11457801  0.37481743     0.93800
C152        C  0.42307344  0.10619543  0.37606904     0.93000
C153        C  0.38042057  0.11043567  0.41780764     0.85100
C154        C  0.38167387  0.11009326  0.33326588     0.91400
O155        O  0.33419588  0.14221919  0.62438161    -0.72400
O156        O  0.39712888  0.15642208  0.62876974    -0.73400
O157        O  0.36701218  0.15315289  0.59473782    -0.62000
O158        O  0.36418206  0.14545025  0.65862761    -0.70400
O159        O  0.37227375  0.11112651  0.65468045    -0.69900
O160        O  0.37504377  0.11878670  0.59108791    -0.61200
O161        O  0.40494881  0.12204416  0.62497646    -0.73700
O162        O  0.34233826  0.10791321  0.62042777    -0.72500
Cu163      Cu  0.36533862  0.15052580  0.62679728     1.04600
Cu164      Cu  0.37391071  0.11379210  0.62271166     1.04300
C165        C  0.32840548  0.12280955  0.62147248     0.93800
C166        C  0.41097905  0.14144755  0.62733471     0.93000
C167        C  0.37148316  0.13715886  0.58285967     0.85100
C168        C  0.36785262  0.12701100  0.66670273     0.91400
O169        O  0.88783503  0.61429307  0.33916839    -0.72400
O170        O  0.88057510  0.61444703  0.40294918    -0.73400
O171        O  0.88141282  0.58194156  0.37088438    -0.62000
O172        O  0.88669559  0.64635740  0.37109813    -0.70400
O173        O  0.85152014  0.64926943  0.36738859    -0.69900
O174        O  0.84632423  0.58504341  0.36660672    -0.61200
O175        O  0.84539603  0.61711261  0.39923143    -0.73700
O176        O  0.85272670  0.61730600  0.33487969    -0.72500
Cu177      Cu  0.88532305  0.61410278  0.37118146     1.04600
Cu178      Cu  0.84775200  0.61723456  0.36690117     1.04300
C179        C  0.87156783  0.61612542  0.32695342     0.93800
C180        C  0.86195070  0.61606382  0.41121932     0.93000
C181        C  0.86296312  0.57335077  0.36858934     0.85100
C182        C  0.86995825  0.65794827  0.36921834     0.91400
O183        O  0.88158170  0.59720612  0.61920669    -0.72400
O184        O  0.86846104  0.66010872  0.61897934    -0.73400
O185        O  0.87485260  0.62828246  0.58681580    -0.62000
O186        O  0.87529153  0.62884013  0.65139842    -0.70400
O187        O  0.91009044  0.63588208  0.65111900    -0.69900
O188        O  0.90951449  0.63592612  0.58689692    -0.61200
O189        O  0.90318943  0.66747295  0.61953569    -0.73700
O190        O  0.91635873  0.60425928  0.61889453    -0.72500
Cu191      Cu  0.87383892  0.62836804  0.61910283     1.04600
Cu192      Cu  0.91099627  0.63613868  0.61906181     1.04300
C193        C  0.90098767  0.59076725  0.61894695     0.93800
C194        C  0.88370057  0.67370709  0.61967143     0.93000
C195        C  0.89226620  0.63186228  0.57669632     0.85100
C196        C  0.89277161  0.63253641  0.66139703     0.91400
O197        O  0.90258060  0.36555045  0.40729925    -0.72400
O198        O  0.90752106  0.36326375  0.34298978    -0.73400
O199        O  0.90496072  0.39648088  0.37404694    -0.62000
O200        O  0.90559291  0.33252380  0.37619252    -0.70400
O201        O  0.87018061  0.33166559  0.37380674    -0.69900
O202        O  0.86958616  0.39664352  0.37112530    -0.61200
O203        O  0.87211353  0.36289628  0.34050011    -0.73700
O204        O  0.86720232  0.36541871  0.40427953    -0.72500
Cu205      Cu  0.90636923  0.36448113  0.37522529     1.04600
Cu206      Cu  0.86851544  0.36413518  0.37232424     1.04300
C207        C  0.88399959  0.36586364  0.41587103     0.93800
C208        C  0.89052416  0.36267281  0.33163465     0.93000
C209        C  0.88738817  0.40672741  0.37233426     0.85100
C210        C  0.88816135  0.32195147  0.37532781     0.91400
O211        O  0.91117841  0.35097394  0.63082395    -0.72400
O212        O  0.90554678  0.41488259  0.62401164    -0.73400
O213        O  0.90215280  0.38564210  0.65889847    -0.62000
O214        O  0.91446138  0.38021473  0.59582259    -0.70400
O215        O  0.87970798  0.37676548  0.58948572    -0.69900
O216        O  0.86758363  0.38092346  0.65227685    -0.61200
O217        O  0.87078358  0.41082932  0.61805757    -0.73700
O218        O  0.87662673  0.34701542  0.62371760    -0.72500
Cu219      Cu  0.90957041  0.38307014  0.62759614     1.04600
Cu220      Cu  0.87249216  0.37878647  0.62064839     1.04300
C221        C  0.89482187  0.33893726  0.62840589     0.93800
C222        C  0.88715558  0.42291019  0.62005336     0.93000
C223        C  0.88287115  0.38381604  0.66550170     0.85100
C224        C  0.89896762  0.37772917  0.58271272     0.91400
O225        O  0.38457081  0.89816271  0.38323578    -0.72400
O226        O  0.32142987  0.88518511  0.38488168    -0.73400
O227        O  0.35299258  0.89538479  0.41583422    -0.62000
O228        O  0.35293459  0.88834789  0.35203266    -0.70400
O229        O  0.36062817  0.85390668  0.35568661    -0.69900
O230        O  0.35969389  0.86078737  0.42004284    -0.61200
O231        O  0.32872078  0.85057456  0.38800753    -0.73700
O232        O  0.39126924  0.86358692  0.38757590    -0.72500
Cu233      Cu  0.35270450  0.89296741  0.38386817     1.04600
Cu234      Cu  0.36029363  0.85600556  0.38798281     1.04300
C235        C  0.39787508  0.88276308  0.38515002     0.93800
C236        C  0.31518567  0.86577363  0.38661449     0.93000
C237        C  0.35640073  0.87935097  0.42801230     0.85100
C238        C  0.35704042  0.87013174  0.34373802     0.91400
O239        O  0.33952762  0.88791611  0.63704064    -0.72400
O240        O  0.40325391  0.89149059  0.63383966    -0.73400
O241        O  0.36980551  0.88634494  0.60333289    -0.62000
O242        O  0.37299458  0.89249491  0.66786939    -0.70400
O243        O  0.37560541  0.85719079  0.67051186    -0.69900
O244        O  0.37186902  0.85110080  0.60702111    -0.61200
O245        O  0.40592698  0.85621958  0.63679289    -0.73700
O246        O  0.34119972  0.85263985  0.64065914    -0.72500
Cu247      Cu  0.37129871  0.89079202  0.63543757     1.04600
Cu248      Cu  0.37368243  0.85306194  0.63889082     1.04300
C249        C  0.33023336  0.86987097  0.63907993     0.93800
C250        C  0.41469343  0.87461981  0.63473139     0.93000
C251        C  0.37035070  0.86760263  0.59510832     0.85100
C252        C  0.37516022  0.87559784  0.67926333     0.91400
O253        O  0.59541404  0.84517984  0.62567182    -0.72400
O254        O  0.65891669  0.85584317  0.62512637    -0.73400
O255        O  0.62806623  0.84592887  0.65722177    -0.62000
O256        O  0.62585884  0.85521832  0.59338284    -0.70400
O257        O  0.61962142  0.88971834  0.59878050    -0.69900
O258        O  0.62319170  0.88067540  0.66246791    -0.61200
O259        O  0.65319641  0.89058525  0.62949348    -0.73700
O260        O  0.58960680  0.87968220  0.63150926    -0.72500
Cu261      Cu  0.62730463  0.84935224  0.62516098     1.04600
Cu262      Cu  0.62122639  0.88637418  0.63074856     1.04300
C263        C  0.58249620  0.86068199  0.62877433     0.93800
C264        C  0.66607576  0.87489513  0.62717040     0.93000
C265        C  0.62591632  0.86180265  0.66989171     0.85100
C266        C  0.62209237  0.87395578  0.58604504     0.91400
O267        O  0.63633304  0.89244965  0.37911359    -0.72400
O268        O  0.57287331  0.88387866  0.38146197    -0.73400
O269        O  0.60677410  0.88212412  0.41176972    -0.62000
O270        O  0.60238364  0.89429191  0.34880725    -0.70400
O271        O  0.60728607  0.85987611  0.34168436    -0.69900
O272        O  0.61093816  0.84757089  0.40492096    -0.61200
O273        O  0.57720916  0.84940714  0.37424014    -0.73700
O274        O  0.64080567  0.85790130  0.37230138    -0.72500
Cu275      Cu  0.60442643  0.88936813  0.38051216     1.04600
Cu276      Cu  0.60918781  0.85246065  0.37303417     1.04300
C277        C  0.64858599  0.87651818  0.37556854     0.93800
C278        C  0.56501057  0.86532377  0.37807833     0.93000
C279        C  0.60967817  0.86296238  0.41830255     0.85100
C280        C  0.60427359  0.87909525  0.33532237     0.91400
O281        O  0.12445149  0.82378827  0.62450083    -0.72400
O282        O  0.12635341  0.88845308  0.62586673    -0.73400
O283        O  0.15720517  0.85489229  0.62944784    -0.62000
O284        O  0.09358275  0.85724216  0.62064363    -0.70400
O285        O  0.08868297  0.85724422  0.65578243    -0.69900
O286        O  0.15251073  0.85353547  0.66458212    -0.61200
O287        O  0.12213177  0.88739133  0.66107779    -0.73700
O288        O  0.11907899  0.82337626  0.65956965    -0.72500
Cu289      Cu  0.12555796  0.85611706  0.62387579     1.04600
Cu290      Cu  0.12041767  0.85536539  0.66145641     1.04300
C291        C  0.12165967  0.81343551  0.64194711     0.93800
C292        C  0.12446229  0.89806790  0.64382534     0.93000
C293        C  0.16491493  0.85358198  0.64834258     0.85100
C294        C  0.08110385  0.85790958  0.63678427     0.91400
O295        O  0.11953963  0.07287845  0.63593925    -0.72400
O296        O  0.11696762  0.13686636  0.64178041    -0.73400
O297        O  0.08626250  0.10410027  0.63529240    -0.62000
O298        O  0.15022115  0.10617399  0.64238245    -0.70400
O299        O  0.15413307  0.10909051  0.60723463    -0.69900
O300        O  0.09003201  0.10771603  0.60020933    -0.61200
O301        O  0.12126611  0.14029942  0.60672210    -0.73700
O302        O  0.12310907  0.07619631  0.60080237    -0.72500
Cu303      Cu  0.11811157  0.10480672  0.64005024     1.04600
Cu304      Cu  0.12224735  0.10837570  0.60250427     1.04300
C305        C  0.12169646  0.06442302  0.61745576     0.93800
C306        C  0.11895200  0.14867212  0.62522888     0.93000
C307        C  0.07802929  0.10601080  0.61666427     0.85100
C308        C  0.16223162  0.10837828  0.62600108     0.91400
O309        O  0.87352402  0.15816559  0.62129492    -0.72400
O310        O  0.86809388  0.09607830  0.63749107    -0.73400
O311        O  0.83865364  0.13019461  0.62970633    -0.62000
O312        O  0.90296205  0.12405856  0.62898988    -0.70400
O313        O  0.90398215  0.13233168  0.66346406    -0.69900
O314        O  0.84000115  0.13928954  0.66395599    -0.61200
O315        O  0.86877861  0.10469663  0.67187521    -0.73700
O316        O  0.87532467  0.16679953  0.65565121    -0.72500
Cu317      Cu  0.87075470  0.12680690  0.62817602     1.04600
Cu318      Cu  0.87205129  0.13608131  0.66492286     1.04300
C319        C  0.87531714  0.17227875  0.63594182     0.93800
C320        C  0.86772204  0.09054509  0.65718936     0.93000
C321        C  0.82922698  0.13593545  0.64692081     0.85100
C322        C  0.91357812  0.12711898  0.64620958     0.91400
O323        O  0.90654567  0.88063588  0.63405302    -0.72400
O324        O  0.84183403  0.87842878  0.63189172    -0.73400
O325        O  0.87308189  0.91163115  0.63148134    -0.62000
O326        O  0.87530724  0.84768870  0.63400975    -0.70400
O327        O  0.87516349  0.84893430  0.66945620    -0.69900
O328        O  0.87105568  0.91366424  0.66684120    -0.61200
O329        O  0.84099237  0.87907335  0.66735549    -0.73700
O330        O  0.90489905  0.88322481  0.66940251    -0.72500
Cu331      Cu  0.87421113  0.87961230  0.63162970     1.04600
Cu332      Cu  0.87294807  0.88131424  0.66949979     1.04300
C333        C  0.91585223  0.88206654  0.65223661     0.93800
C334        C  0.83128690  0.87800318  0.64942635     0.93000
C335        C  0.87169242  0.92277786  0.64851001     0.85100
C336        C  0.87591243  0.83817079  0.65207883     0.91400
O337        O  0.36646650  0.16574141  0.12901304    -0.72400
O338        O  0.36565356  0.10110488  0.12892345    -0.73400
O339        O  0.37169395  0.13299939  0.16056766    -0.62000
O340        O  0.36009727  0.13360049  0.09762277    -0.70400
O341        O  0.39493435  0.13370033  0.09079116    -0.69900
O342        O  0.40664581  0.13253364  0.15441827    -0.61200
O343        O  0.40049915  0.10096140  0.12218155    -0.73700
O344        O  0.40148309  0.16513416  0.12318938    -0.72500
Cu345      Cu  0.36477421  0.13339347  0.12924778     1.04600
Cu346      Cu  0.40211308  0.13306549  0.12240017     1.04300
C347        C  0.38420412  0.17557730  0.12617081     0.93800
C348        C  0.38305330  0.09087842  0.12555772     0.93000
C349        C  0.39092399  0.13249041  0.16748993     0.85100
C350        C  0.37551566  0.13380005  0.08427120     0.91400
O351        O  0.34706322  0.17041765  0.87726365    -0.72400
O352        O  0.34711058  0.10667109  0.87982917    -0.73400
O353        O  0.35397787  0.13952723  0.91024015    -0.62000
O354        O  0.34079635  0.13745130  0.84697564    -0.70400
O355        O  0.37563147  0.13666097  0.84022608    -0.69900
O356        O  0.38868207  0.13956161  0.90275219    -0.61200
O357        O  0.38197454  0.10587926  0.87311359    -0.73700
O358        O  0.38182353  0.17042674  0.86999067    -0.72500
Cu359      Cu  0.34603449  0.13853581  0.87885947     1.04600
Cu360      Cu  0.38324815  0.13814202  0.87128171     1.04300
C361        C  0.36426099  0.18051137  0.87296413     0.93800
C362        C  0.36435758  0.09618155  0.87696194     0.93000
C363        C  0.37352035  0.13970550  0.91638844     0.85100
C364        C  0.35628037  0.13669277  0.83364716     0.91400
O365        O  0.40091758  0.91786789  0.88511117    -0.72400
O366        O  0.39143423  0.85440997  0.88300868    -0.73400
O367        O  0.39278742  0.88790679  0.85195425    -0.62000
O368        O  0.39909627  0.88464548  0.91635166    -0.70400
O369        O  0.36420211  0.89016095  0.91956980    -0.69900
O370        O  0.35780876  0.89241440  0.85597437    -0.61200
O371        O  0.35653977  0.85933814  0.88726088    -0.73700
O372        O  0.36592701  0.92297747  0.88822296    -0.72500
Cu373      Cu  0.39730399  0.88599837  0.88399266     1.04600
Cu374      Cu  0.35993253  0.89137038  0.88789522     1.04300
C375        C  0.38492011  0.93044145  0.88665484     0.93800
C376        C  0.37253363  0.84684282  0.88491357     0.93000
C377        C  0.37417711  0.89085344  0.84390417     0.85100
C378        C  0.38251447  0.88707101  0.92809005     0.91400
O379        O  0.32817780  0.91721238  0.13493719    -0.72400
O380        O  0.32678631  0.85296691  0.13368071    -0.73400
O381        O  0.32630103  0.88455802  0.16635916    -0.62000
O382        O  0.32863125  0.88578029  0.10222362    -0.70400
O383        O  0.36410764  0.88517723  0.10330711    -0.69900
O384        O  0.36174619  0.88349078  0.16793248    -0.61200
O385        O  0.36226132  0.85206673  0.13460007    -0.73700
O386        O  0.36364689  0.91654772  0.13625776    -0.72500
Cu387      Cu  0.32627259  0.88513375  0.13426567     1.04600
Cu388      Cu  0.36420315  0.88427543  0.13559633     1.04300
C389        C  0.34608268  0.92702674  0.13567991     0.93800
C390        C  0.34425300  0.84237497  0.13378792     0.93000
C391        C  0.34354266  0.88392667  0.17729453     0.85100
C392        C  0.34665981  0.88578894  0.09262414     0.91400
O393        O  0.90408854  0.37278303  0.12308358    -0.72400
O394        O  0.84009692  0.36586521  0.12577770    -0.73400
O395        O  0.87071369  0.37145799  0.09211685    -0.62000
O396        O  0.87363983  0.36744388  0.15667891    -0.70400
O397        O  0.86955023  0.40264557  0.15864857    -0.69900
O398        O  0.86686430  0.40663168  0.09483888    -0.61200
O399        O  0.83635235  0.40108491  0.12790648    -0.73700
O400        O  0.90027407  0.40797958  0.12545902    -0.72500
Cu401      Cu  0.87224932  0.36812367  0.12433666     1.04600
Cu402      Cu  0.86814117  0.40577384  0.12680217     1.04300
C403        C  0.91226039  0.39151827  0.12374753     0.93800
C404        C  0.82814275  0.38236583  0.12727737     0.93000
C405        C  0.86851796  0.38985044  0.08337070     0.85100
C406        C  0.87191851  0.38453987  0.16778000     0.91400
O407        O  0.87422736  0.40751739  0.84543793    -0.72400
O408        O  0.87327104  0.39594517  0.90885888    -0.73400
O409        O  0.90508112  0.40810773  0.87862519    -0.62000
O410        O  0.84212594  0.39535014  0.87553698    -0.70400
O411        O  0.84918100  0.36113153  0.86935139    -0.69900
O412        O  0.91206659  0.37387791  0.87244010    -0.61200
O413        O  0.88022918  0.36171284  0.90270479    -0.73700
O414        O  0.88103514  0.37321758  0.83943998    -0.72500
Cu415      Cu  0.87338516  0.40291755  0.87736073     1.04600
Cu416      Cu  0.88086454  0.36629614  0.87081782     1.04300
C417        C  0.87794299  0.39219246  0.83246241     0.93800
C418        C  0.87671980  0.37699526  0.91577973     0.93000
C419        C  0.91850873  0.39301700  0.87567770     0.85100
C420        C  0.83572497  0.37627565  0.87184065     0.91400
O421        O  0.12095455  0.39952105  0.14400813    -0.72400
O422        O  0.11747574  0.39562634  0.07954418    -0.73400
O423        O  0.08715919  0.39322495  0.11368746    -0.62000
O424        O  0.15076873  0.40208106  0.10961723    -0.70400
O425        O  0.15578345  0.36704233  0.11226514    -0.69900
O426        O  0.09208541  0.35812908  0.11540525    -0.61200
O427        O  0.12275381  0.36060979  0.08191201    -0.73700
O428        O  0.12519776  0.36435056  0.14599798    -0.72500
Cu429      Cu  0.11886895  0.39884760  0.11169099     1.04600
Cu430      Cu  0.12410309  0.36133059  0.11398461     1.04300
C431        C  0.12367228  0.38255705  0.15513682     0.93800
C432        C  0.11993954  0.37739541  0.07060765     0.93000
C433        C  0.07956738  0.37427074  0.11502167     0.85100
C434        C  0.16328203  0.38595876  0.11008531     0.91400
O435        O  0.09306396  0.40394869  0.85954404    -0.72400
O436        O  0.15680941  0.41338461  0.85926064    -0.73400
O437        O  0.12540506  0.40459996  0.82759715    -0.62000
O438        O  0.12426542  0.41280450  0.89128563    -0.70400
O439        O  0.12885704  0.37792311  0.89593198    -0.69900
O440        O  0.13147106  0.36989111  0.83190612    -0.61200
O441        O  0.16191591  0.37865303  0.86447478    -0.73700
O442        O  0.09841713  0.36907083  0.86340206    -0.72500
Cu443      Cu  0.12472661  0.40989504  0.85926743     1.04600
Cu444      Cu  0.13035252  0.37267040  0.86409805     1.04300
C445        C  0.08572180  0.38496402  0.86156459     0.93800
C446        C  0.16940873  0.39748179  0.86173752     0.93000
C447        C  0.12874962  0.38608209  0.81968227     0.85100
C448        C  0.12607501  0.39665299  0.90367114     0.91400
O449        O  0.61205448  0.92225109  0.12775781    -0.72400
O450        O  0.61878907  0.85856369  0.12861043    -0.73400
O451        O  0.61361359  0.89050766  0.16043088    -0.62000
O452        O  0.61752083  0.88998842  0.09594516    -0.70400
O453        O  0.65271879  0.89402404  0.09833253    -0.69900
O454        O  0.64890040  0.89406496  0.16223592    -0.61200
O455        O  0.65405720  0.86216067  0.13058042    -0.73700
O456        O  0.64727844  0.92617916  0.12992364    -0.72500
Cu457      Cu  0.61424519  0.89026062  0.12811326     1.04600
Cu458      Cu  0.65194619  0.89429946  0.13034618     1.04300
C459        C  0.62853371  0.93427767  0.12868014     0.93800
C460        C  0.63744440  0.85028590  0.12968135     0.93000
C461        C  0.63080580  0.89197672  0.17144858     0.85100
C462        C  0.63588269  0.89161359  0.08704214     0.91400
O463        O  0.64657784  0.90038160  0.87998072    -0.72400
O464        O  0.64034803  0.83613776  0.88339446    -0.73400
O465        O  0.64816410  0.86650941  0.84987188    -0.62000
O466        O  0.63877179  0.87037352  0.91353212    -0.70400
O467        O  0.60382540  0.87323952  0.90801469    -0.69900
O468        O  0.61319703  0.86943118  0.84447878    -0.61200
O469        O  0.60545340  0.83941429  0.87775781    -0.73700
O470        O  0.61158464  0.90333842  0.87479968    -0.72500
Cu471      Cu  0.64469562  0.86819977  0.88189144     1.04600
Cu472      Cu  0.60731911  0.87143903  0.87608691     1.04300
C473        C  0.63000841  0.91196039  0.87681150     0.93800
C474        C  0.62184218  0.82768640  0.88107500     0.93000
C475        C  0.63219888  0.86760619  0.83714500     0.85100
C476        C  0.61976187  0.87250963  0.92078456     0.91400
O477        O  0.66967487  0.11449183  0.84004060    -0.72400
O478        O  0.67339831  0.11815917  0.90405115    -0.73400
O479        O  0.66847458  0.08414145  0.87390491    -0.62000
O480        O  0.67417726  0.14868805  0.87030322    -0.70400
O481        O  0.63885575  0.15171425  0.87166471    -0.69900
O482        O  0.63326459  0.08800937  0.87615592    -0.61200
O483        O  0.63818268  0.12204892  0.90609911    -0.73700
O484        O  0.63435928  0.11757676  0.84170282    -0.72500
Cu485      Cu  0.67267611  0.11627359  0.87199355     1.04600
Cu486      Cu  0.63496060  0.11994601  0.87395725     1.04300
C487        C  0.65148749  0.11515874  0.83076236     0.93800
C488        C  0.65649906  0.12086337  0.91518201     0.93000
C489        C  0.64974955  0.07599128  0.87551607     0.85100
C490        C  0.65735175  0.16034746  0.87063238     0.91400
O491        O  0.65133191  0.17778907  0.12014563    -0.72400
O492        O  0.66163123  0.11414172  0.12163223    -0.73400
O493        O  0.65283677  0.14448384  0.08899539    -0.62000
O494        O  0.66032488  0.14683873  0.15298546    -0.70400
O495        O  0.62553693  0.14123827  0.15731275    -0.69900
O496        O  0.61796299  0.13955995  0.09339408    -0.61200
O497        O  0.62676401  0.10880721  0.12564292    -0.73700
O498        O  0.61665175  0.17207357  0.12521902    -0.72500
Cu499      Cu  0.65775527  0.14608398  0.12079708     1.04600
Cu500      Cu  0.62053242  0.14027611  0.12552415     1.04300
C501        C  0.63229250  0.18491162  0.12251065     0.93800
C502        C  0.64575132  0.10146048  0.12379813     0.93000
C503        C  0.63420927  0.14137211  0.08112576     0.85100
C504        C  0.64419600  0.14400402  0.16522530     0.91400
O505        O  0.11815992  0.62786850  0.14651340    -0.72400
O506        O  0.12456789  0.62347185  0.08297269    -0.73400
O507        O  0.08932753  0.62341092  0.11191865    -0.62000
O508        O  0.15359167  0.62752949  0.11794053    -0.70400
O509        O  0.15534279  0.59221898  0.12112976    -0.69900
O510        O  0.09168131  0.58807878  0.11429581    -0.61200
O511        O  0.12701914  0.58817096  0.08546422    -0.73700
O512        O  0.12007701  0.59254664  0.14958197    -0.72500
Cu513      Cu  0.12137368  0.62678920  0.11469936     1.04600
Cu514      Cu  0.12361629  0.58901340  0.11766072     1.04300
C515        C  0.11798329  0.61104125  0.15806646     0.93800
C516        C  0.12673351  0.60520302  0.07411011     0.93000
C517        C  0.08039885  0.60499498  0.11242533     0.85100
C518        C  0.16451578  0.61045224  0.12081013     0.91400
O519        O  0.12940855  0.62121435  0.89906283    -0.72400
O520        O  0.12670343  0.61899167  0.83465190    -0.73400
O521        O  0.16037153  0.62221154  0.86555093    -0.62000
O522        O  0.09572151  0.61838607  0.86834906    -0.70400
O523        O  0.09420205  0.65383024  0.86729764    -0.69900
O524        O  0.15797434  0.65759658  0.86393256    -0.61200
O525        O  0.12474185  0.65440862  0.83354665    -0.73700
O526        O  0.12758582  0.65662667  0.89788036    -0.72500
Cu527      Cu  0.12813023  0.61893024  0.86694302     1.04600
Cu528      Cu  0.12604060  0.65680576  0.86563881     1.04300
C529        C  0.12884744  0.63926732  0.90862890     0.93800
C530        C  0.12542937  0.63639143  0.82394919     0.93000
C531        C  0.16926094  0.64061495  0.86414724     0.85100
C532        C  0.08483552  0.63572487  0.86837359     0.91400
O533        O  0.87839678  0.62630931  0.90053893    -0.72400
O534        O  0.87972894  0.62813576  0.83596722    -0.73400
O535        O  0.84720924  0.63061397  0.86753412    -0.62000
O536        O  0.91113425  0.62412044  0.86892970    -0.70400
O537        O  0.90762598  0.58884813  0.86746468    -0.69900
O538        O  0.84328693  0.59534147  0.86707703    -0.61200
O539        O  0.87562282  0.59288503  0.83525995    -0.73700
O540        O  0.87518097  0.59098411  0.89923529    -0.72500
Cu541      Cu  0.87926377  0.62853002  0.86828882     1.04600
Cu542      Cu  0.87533040  0.59079434  0.86722672     1.04300
C543        C  0.87658569  0.60824355  0.91000893     0.93800
C544        C  0.87758739  0.61070172  0.82548105     0.93000
C545        C  0.83516123  0.61412424  0.86708435     0.85100
C546        C  0.91950397  0.60547854  0.86838639     0.91400
O547        O  0.83826665  0.64254948  0.11864366    -0.72400
O548        O  0.90248775  0.64629412  0.12189397    -0.73400
O549        O  0.87169117  0.64871517  0.08849164    -0.62000
O550        O  0.86906821  0.63977496  0.15251395    -0.70400
O551        O  0.87128701  0.60472863  0.14742857    -0.69900
O552        O  0.87379696  0.61358736  0.08400950    -0.61200
O553        O  0.90487262  0.61123978  0.11700527    -0.73700
O554        O  0.84050680  0.60740479  0.11428497    -0.72500
Cu555      Cu  0.87031998  0.64556933  0.12059977     1.04600
Cu556      Cu  0.87273076  0.60804171  0.11555217     1.04300
C557        C  0.82926693  0.62439916  0.11583876     0.93800
C558        C  0.91382462  0.62946630  0.11958084     0.93000
C559        C  0.87305426  0.63246079  0.07619100     0.85100
C560        C  0.86955264  0.62070566  0.15998940     0.91400
O561        O  0.40450873  0.38278123  0.12575735    -0.72400
O562        O  0.34074195  0.38346736  0.12952239    -0.73400
O563        O  0.37206967  0.35070829  0.12786591    -0.62000
O564        O  0.37310306  0.41578512  0.12665120    -0.70400
O565        O  0.37086732  0.41438388  0.09127139    -0.69900
O566        O  0.36958333  0.35054261  0.09246935    -0.61200
O567        O  0.33810719  0.38302188  0.09412439    -0.73700
O568        O  0.40266969  0.38190589  0.09034583    -0.72500
Cu569      Cu  0.37269774  0.38322717  0.12869966     1.04600
Cu570      Cu  0.37027101  0.38246487  0.09083717     1.04300
C571        C  0.41373251  0.38225705  0.10756099     0.93800
C572        C  0.32933945  0.38310216  0.11261102     0.93000
C573        C  0.37037375  0.34048339  0.11019758     0.85100
C574        C  0.37211659  0.42523324  0.10847929     0.91400
O575        O  0.37311713  0.60120435  0.10734165    -0.72400
O576        O  0.37116723  0.66564654  0.10046803    -0.73400
O577        O  0.40399685  0.63472752  0.10565802    -0.62000
O578        O  0.34020046  0.63235349  0.10153638    -0.70400
O579        O  0.33737331  0.63527365  0.13678510    -0.69900
O580        O  0.40191412  0.63909125  0.14078373    -0.61200
O581        O  0.36782608  0.66900212  0.13562008    -0.73700
O582        O  0.37128995  0.60533104  0.14251821    -0.72500
Cu583      Cu  0.37219743  0.63332852  0.10253312     1.04600
Cu584      Cu  0.36952809  0.63727772  0.14015680     1.04300
C585        C  0.37262305  0.59317951  0.12619105     0.93800
C586        C  0.36900466  0.67742390  0.11703769     0.93000
C587        C  0.41309615  0.63750961  0.12372712     0.85100
C588        C  0.32868595  0.63349673  0.11833304     0.91400
O589        O  0.65542411  0.64253952  0.12107690    -0.72400
O590        O  0.59174082  0.64295091  0.12950861    -0.73400
O591        O  0.62310292  0.61051256  0.12325052    -0.62000
O592        O  0.62406504  0.67504409  0.12687097    -0.70400
O593        O  0.61855311  0.67678258  0.09183881    -0.69900
O594        O  0.61899750  0.61307599  0.08808462    -0.61200
O595        O  0.58685807  0.64449699  0.09439864    -0.73700
O596        O  0.65094483  0.64546783  0.08600389    -0.72500
Cu597      Cu  0.62374916  0.64269495  0.12642024     1.04600
Cu598      Cu  0.61869368  0.64502117  0.08887373     1.04300
C599        C  0.66327377  0.64403907  0.10227002     0.93800
C600        C  0.57923859  0.64365853  0.11337245     0.93000
C601        C  0.62096373  0.60170123  0.10491215     0.85100
C602        C  0.62126852  0.68600885  0.10980139     0.91400
O603        O  0.61893846  0.42748609  0.10057317    -0.72400
O604        O  0.62354769  0.36400272  0.09050716    -0.73400
O605        O  0.58915646  0.39355118  0.09462692    -0.62000
O606        O  0.65300150  0.39809708  0.09621915    -0.70400
O607        O  0.65273325  0.39191959  0.13118471    -0.69900
O608        O  0.58830821  0.38828587  0.12971753    -0.61200
O609        O  0.62257230  0.35857290  0.12555678    -0.73700
O610        O  0.61869782  0.42179236  0.13560312    -0.72500
Cu611      Cu  0.62112487  0.39597255  0.09426835     1.04600
Cu612      Cu  0.62051943  0.38995048  0.13174712     1.04300
C613        C  0.61844339  0.43463851  0.11972198     0.93800
C614        C  0.62398925  0.35129422  0.10652247     0.93000
C615        C  0.57862355  0.39027120  0.11179750     0.85100
C616        C  0.66295995  0.39563939  0.11386030     0.91400
O617        O  0.41123994  0.64010003  0.88648662    -0.72400
O618        O  0.34705657  0.63956600  0.89196522    -0.73400
O619        O  0.37956382  0.60792751  0.89180539    -0.62000
O620        O  0.37861516  0.67197863  0.88661896    -0.70400
O621        O  0.37581468  0.66910749  0.85136327    -0.69900
O622        O  0.37641638  0.60492086  0.85659068    -0.61200
O623        O  0.34392528  0.63684447  0.85672789    -0.73700
O624        O  0.40807603  0.63716367  0.85127361    -0.72500
Cu625      Cu  0.37920540  0.64002741  0.89043933     1.04600
Cu626      Cu  0.37592749  0.63693785  0.85275902     1.04300
C627        C  0.41977587  0.63853302  0.86797159     0.93800
C628        C  0.33538772  0.63794529  0.87527364     0.93000
C629        C  0.37818858  0.59632184  0.87507019     0.85100
C630        C  0.37722537  0.68064794  0.86814489     0.91400
O631        O  0.66069932  0.61354168  0.90637339    -0.72400
O632        O  0.59677027  0.61868209  0.90953384    -0.73400
O633        O  0.62622213  0.58437861  0.90322197    -0.62000
O634        O  0.63146788  0.64809522  0.91244696    -0.70400
O635        O  0.62954354  0.65317204  0.87738437    -0.69900
O636        O  0.62514973  0.58984575  0.86817237    -0.61200
O637        O  0.59515347  0.62370125  0.87444729    -0.73700
O638        O  0.65969537  0.61923047  0.87135943    -0.72500
Cu639      Cu  0.62882174  0.61601817  0.90911142     1.04600
Cu640      Cu  0.62734074  0.62168366  0.87161997     1.04300
C641        C  0.67029145  0.61530752  0.88844371     0.93800
C642        C  0.58584676  0.62203024  0.89259780     0.93000
C643        C  0.62516686  0.57710350  0.88413921     0.85100
C644        C  0.63107883  0.66067920  0.89631964     0.91400
O645        O  0.59562909  0.37056825  0.86659023    -0.72400
O646        O  0.66018630  0.37199708  0.86757584    -0.73400
O647        O  0.62867637  0.33964694  0.86053536    -0.62000
O648        O  0.62713617  0.40262697  0.87332968    -0.70400
O649        O  0.62584622  0.39559301  0.90808458    -0.69900
O650        O  0.62991408  0.33242135  0.89526009    -0.61200
O651        O  0.65961092  0.36610531  0.90258353    -0.73700
O652        O  0.59569717  0.36219589  0.90108257    -0.72500
Cu653      Cu  0.62791000  0.37140550  0.86577357     1.04600
Cu654      Cu  0.62771839  0.36377617  0.90294341     1.04300
C655        C  0.58551972  0.36625671  0.88384440     0.93800
C656        C  0.66998582  0.36976731  0.88541035     0.93000
C657        C  0.62988371  0.32611265  0.87580113     0.85100
C658        C  0.62623564  0.40906544  0.89270016     0.91400
O659        O  0.34414337  0.38541689  0.84931374    -0.72400
O660        O  0.40810818  0.38412414  0.84143621    -0.73400
O661        O  0.37622419  0.35299488  0.85014091    -0.62000
O662        O  0.37603052  0.41659978  0.84058906    -0.70400
O663        O  0.37999125  0.42167674  0.87547355    -0.69900
O664        O  0.38138637  0.35812745  0.88487686    -0.61200
O665        O  0.41246631  0.38966853  0.87620016    -0.73700
O666        O  0.34869757  0.38968322  0.88424758    -0.72500
Cu667      Cu  0.37595935  0.38462889  0.84414470     1.04600
Cu668      Cu  0.38076247  0.39002235  0.88139762     1.04300
C669        C  0.33636598  0.38759245  0.86809355     0.93800
C670        C  0.42036258  0.38639769  0.85763750     0.93000
C671        C  0.37914962  0.34555079  0.86897163     0.85100
C672        C  0.37787066  0.42918078  0.85655650     0.91400
C673        C  0.52597933  0.37592140  0.86935632     0.19200
C674        C  0.51462624  0.38010676  0.85041352    -0.18800
C675        C  0.49238800  0.38289113  0.85067773    -0.11100
C676        C  0.48093571  0.38155257  0.87002362     0.21500
C677        C  0.49231930  0.37756363  0.88895815    -0.20500
C678        C  0.51450063  0.37483246  0.88870518    -0.11300
C679        C  0.45732795  0.38460407  0.87153127    -0.15500
C680        C  0.44379429  0.38470949  0.85474639    -0.29300
C681        C  0.54975713  0.37387177  0.86834052    -0.03600
C682        C  0.56189332  0.36628748  0.88447102    -0.40100
H683        H  0.52302165  0.38135774  0.83532325     0.12700
H684        H  0.48445793  0.38641773  0.83573089     0.12300
H685        H  0.48401235  0.37666611  0.90412744     0.11700
H686        H  0.52243315  0.37235732  0.90384847     0.12000
H687        H  0.45065013  0.38608709  0.88750039     0.14700
H688        H  0.44964852  0.38247959  0.83860929     0.13500
H689        H  0.55761920  0.37909581  0.85374860     0.11200
H690        H  0.55459008  0.36050483  0.89906419     0.13200
C691        C  0.62577410  0.47062223  0.88607468     0.19200
C692        C  0.61838258  0.48425081  0.86984369    -0.18800
C693        C  0.61810182  0.50642004  0.87271596    -0.11100
C694        C  0.62563508  0.51557675  0.89186308     0.21500
C695        C  0.63310091  0.50192160  0.90808662    -0.20500
C696        C  0.63326991  0.47970887  0.90524396    -0.11300
C697        C  0.62571763  0.53912171  0.89570418    -0.15500
C698        C  0.62420825  0.55385200  0.88003386    -0.29300
C699        C  0.62597617  0.44717142  0.88203243    -0.03600
C700        C  0.62587932  0.43221737  0.89756368    -0.40100
H701        H  0.61253813  0.47768787  0.85492148     0.12700
H702        H  0.61165261  0.51614063  0.85995872     0.12300
H703        H  0.63903949  0.50848258  0.92297145     0.11700
H704        H  0.63964482  0.46982198  0.91793416     0.12000
H705        H  0.62786879  0.54454102  0.91206775     0.14700
H706        H  0.62307596  0.54898308  0.86345453     0.13500
H707        H  0.62553019  0.44202294  0.86544732     0.11200
H708        H  0.62534415  0.43688638  0.91425022     0.13200
C709        C  0.37877625  0.53560584  0.86298243     0.19200
C710        C  0.37079537  0.52286595  0.84631260    -0.18800
C711        C  0.37109373  0.50051985  0.84781693    -0.11100
C712        C  0.37969927  0.49038355  0.86601629     0.21500
C713        C  0.38789502  0.50314755  0.88254970    -0.20500
C714        C  0.38759868  0.52544944  0.88104274    -0.11300
C715        C  0.37996519  0.46671713  0.86883279    -0.15500
C716        C  0.37744138  0.45253752  0.85283189    -0.29300
C717        C  0.37799733  0.55932275  0.86076823    -0.03600
C718        C  0.37881099  0.57282716  0.87751903    -0.40100
H719        H  0.36398811  0.53024572  0.83218434     0.12700
H720        H  0.36418409  0.49140923  0.83486195     0.12300
H721        H  0.39470347  0.49581635  0.89670239     0.11700
H722        H  0.39459083  0.53455484  0.89396226     0.12000
H723        H  0.38288265  0.46069308  0.88487698     0.14700
H724        H  0.37534618  0.45793470  0.83649457     0.13500
H725        H  0.37608164  0.56586792  0.84477827     0.11200
H726        H  0.37975678  0.56667071  0.89370058     0.13200
C727        C  0.52581215  0.63081644  0.87925083     0.19200
C728        C  0.51355325  0.62917164  0.86051719    -0.18800
C729        C  0.49127365  0.63136247  0.86107830    -0.11100
C730        C  0.48061980  0.63552801  0.88049541     0.21500
C731        C  0.49293940  0.63743668  0.89919594    -0.20500
C732        C  0.51522259  0.63520824  0.89862911    -0.11300
C733        C  0.45683455  0.63739400  0.88224794    -0.15500
C734        C  0.44330701  0.63797104  0.86544978    -0.29300
C735        C  0.54952410  0.62836671  0.87770008    -0.03600
C736        C  0.56232697  0.62408669  0.89451149    -0.40100
H737        H  0.52123645  0.62591562  0.84535403     0.12700
H738        H  0.48267610  0.62944457  0.84622965     0.12300
H739        H  0.48528885  0.64071465  0.91437337     0.11700
H740        H  0.52398017  0.63726563  0.91338895     0.12000
H741        H  0.45011816  0.63811428  0.89825384     0.14700
H742        H  0.44929628  0.63761661  0.84922792     0.13500
H743        H  0.55667369  0.62968649  0.86192221     0.11200
H744        H  0.55557664  0.62188017  0.91031380     0.13200
C745        C  0.62045975  0.49597813  0.11164291     0.19200
C746        C  0.62841467  0.50898539  0.09516691    -0.18800
C747        C  0.62923968  0.53118752  0.09747910    -0.11100
C748        C  0.62181619  0.54099104  0.11631084     0.21500
C749        C  0.61413217  0.52801579  0.13293348    -0.20500
C750        C  0.61327392  0.50576136  0.13061353    -0.11300
C751        C  0.62208078  0.56461115  0.11913131    -0.15500
C752        C  0.62079899  0.57824069  0.10252905    -0.29300
C753        C  0.61969539  0.47244071  0.10810819    -0.03600
C754        C  0.61791402  0.45788850  0.12388713    -0.40100
H755        H  0.63418441  0.50191774  0.08045063     0.12700
H756        H  0.63597350  0.54053681  0.08456726     0.12300
H757        H  0.60838436  0.53515932  0.14761869     0.11700
H758        H  0.60659865  0.49646489  0.14356816     0.12000
H759        H  0.62247583  0.57091749  0.13531073     0.14700
H760        H  0.61912220  0.57211501  0.08639132     0.13500
H761        H  0.62157810  0.46682065  0.09177564     0.11200
H762        H  0.61702887  0.46289387  0.14044714     0.13200
C763        C  0.51786506  0.64276219  0.10381005     0.19200
C764        C  0.50489971  0.64650923  0.08586896    -0.18800
C765        C  0.48263905  0.64519380  0.08732878    -0.11100
C766        C  0.47265708  0.64020095  0.10680003     0.21500
C767        C  0.48554445  0.63635099  0.12485206    -0.20500
C768        C  0.50789124  0.63759125  0.12338000    -0.11300
C769        C  0.44890925  0.63836406  0.10713760    -0.15500
C770        C  0.43671660  0.63901088  0.12491785    -0.29300
C771        C  0.54156621  0.64365733  0.10097117    -0.03600
C772        C  0.55586128  0.64334081  0.11709006    -0.40100
H773        H  0.51202818  0.65037088  0.07055960     0.12700
H774        H  0.47315747  0.64808083  0.07311181     0.12300
H775        H  0.47855690  0.63183996  0.14001014     0.11700
H776        H  0.51710888  0.63399491  0.13753853     0.12000
H777        H  0.44100729  0.63701336  0.09171320     0.14700
H778        H  0.44393164  0.64119345  0.14052857     0.13500
H779        H  0.54753892  0.64473178  0.08468773     0.11200
H780        H  0.55059258  0.64284999  0.13357254     0.13200
C781        C  0.47342979  0.38375512  0.12415736     0.19200
C782        C  0.48401038  0.39012326  0.14292976    -0.18800
C783        C  0.50635646  0.39069008  0.14388067    -0.11100
C784        C  0.51868138  0.38500575  0.12604497     0.21500
C785        C  0.50813993  0.37803640  0.10740421    -0.20500
C786        C  0.48578554  0.37743533  0.10645609    -0.11300
C787        C  0.54241762  0.38613815  0.12756629    -0.15500
C788        C  0.55509669  0.38877650  0.11038484    -0.29300
C789        C  0.44960841  0.38338022  0.12408745    -0.03600
C790        C  0.43736481  0.38215234  0.10635158    -0.40100
H791        H  0.47494196  0.39481755  0.15691428     0.12700
H792        H  0.51403952  0.39584308  0.15852818     0.12300
H793        H  0.51704747  0.37262995  0.09362013     0.11700
H794        H  0.47840258  0.37163494  0.09195746     0.12000
H795        H  0.54959885  0.38570207  0.14339437     0.14700
H796        H  0.54810527  0.39042999  0.09459293     0.13500
H797        H  0.44174613  0.38477170  0.13952174     0.11200
H798        H  0.44455169  0.38155997  0.09060170     0.13200
C799        C  0.37551558  0.48623984  0.12032785     0.19200
C800        C  0.37327440  0.49915495  0.13853987    -0.18800
C801        C  0.37291013  0.52152119  0.13684845    -0.11100
C802        C  0.37496896  0.53163328  0.11676171     0.21500
C803        C  0.37756371  0.51869112  0.09862423    -0.20500
C804        C  0.37798708  0.49637867  0.10032528    -0.11300
C805        C  0.37431231  0.55539591  0.11371445    -0.15500
C806        C  0.37353562  0.56975889  0.12974414    -0.29300
C807        C  0.37541338  0.46241502  0.12288266    -0.03600
C808        C  0.37223610  0.44882023  0.10648946    -0.40100
H809        H  0.37151959  0.49189358  0.15418206     0.12700
H810        H  0.37077134  0.53056387  0.15137308     0.12300
H811        H  0.37937058  0.52588975  0.08295971     0.11700
H812        H  0.38054901  0.48734012  0.08585690     0.12000
H813        H  0.37452946  0.56136095  0.09738235     0.14700
H814        H  0.37354827  0.56453511  0.14624552     0.13500
H815        H  0.37752106  0.45587783  0.13885755     0.11200
H816        H  0.36937832  0.45496998  0.09055048     0.13200
C817        C  0.72400823  0.63864724  0.11274441     0.19200
C818        C  0.73590954  0.62444354  0.12541997    -0.18800
C819        C  0.75825935  0.62424109  0.12448381    -0.11100
C820        C  0.76926584  0.63855752  0.11106456     0.21500
C821        C  0.75738696  0.65296856  0.09854997    -0.20500
C822        C  0.73496507  0.65291236  0.09920792    -0.11300
C823        C  0.79304275  0.63977602  0.11100186    -0.15500
C824        C  0.80569105  0.62273239  0.11473692    -0.29300
C825        C  0.70033863  0.63894505  0.11507734    -0.03600
C826        C  0.68676724  0.64424020  0.09919109    -0.40100
H827        H  0.72786375  0.61351037  0.13619321     0.12700
H828        H  0.76687723  0.61335242  0.13483194     0.12300
H829        H  0.76549554  0.66437901  0.08832972     0.11700
H830        H  0.72630020  0.66446689  0.08964412     0.12000
H831        H  0.80035500  0.65513305  0.10740466     0.14700
H832        H  0.79865044  0.60697574  0.11666947     0.13500
H833        H  0.69381632  0.63365972  0.13029767     0.11200
H834        H  0.69291277  0.64818085  0.08344354     0.13200
C835        C  0.77405421  0.60485167  0.86891118     0.19200
C836        C  0.76095804  0.59199004  0.88182715    -0.18800
C837        C  0.73882202  0.59532132  0.88252269    -0.11100
C838        C  0.72925473  0.61143303  0.87001200     0.21500
C839        C  0.74225696  0.62369735  0.85642141    -0.20500
C840        C  0.76444168  0.62058319  0.85597322    -0.11300
C841        C  0.70574920  0.61532621  0.87034035    -0.15500
C842        C  0.69374306  0.61215031  0.88792296    -0.29300
C843        C  0.79758813  0.60127106  0.86900380    -0.03600
C844        C  0.81172838  0.61729334  0.86635898    -0.40100
H845        H  0.76792008  0.57952622  0.89164885     0.12700
H846        H  0.72921589  0.58504288  0.89262427     0.12300
H847        H  0.73525304  0.63591318  0.84632484     0.11700
H848        H  0.77399302  0.63031806  0.84529423     0.12000
H849        H  0.69829722  0.62169893  0.85599076     0.14700
H850        H  0.70133785  0.60710072  0.90270088     0.13500
H851        H  0.80340917  0.58529489  0.87259638     0.11200
H852        H  0.80600032  0.63354876  0.86426800     0.13200
C853        C  0.87540164  0.62096004  0.01544587     0.19200
C854        C  0.88266180  0.60342241  0.00350473    -0.18800
C855        C  0.88313315  0.60418897  0.98118707    -0.11100
C856        C  0.87600682  0.62250534  0.97018840     0.21500
C857        C  0.86880866  0.64009779  0.98211176    -0.20500
C858        C  0.86836636  0.63934309  0.00448825    -0.11300
C859        C  0.87635088  0.62400771  0.94642105    -0.15500
C860        C  0.87615139  0.60676122  0.93356391    -0.29300
C861        C  0.87491225  0.61899511  0.03915418    -0.03600
C862        C  0.87361956  0.63563614  0.05276383    -0.40100
H863        H  0.88821051  0.58907422  0.01150377     0.12700
H864        H  0.88945728  0.59051159  0.97273512     0.12300
H865        H  0.86325803  0.65441114  0.97406238     0.11700
H866        H  0.86216574  0.65303528  0.01299222     0.12000
H867        H  0.87611854  0.63985932  0.93927884     0.14700
H868        H  0.87516432  0.59081925  0.94034217     0.13500
H869        H  0.87616469  0.60293920  0.04572596     0.11200
H870        H  0.87313731  0.65192817  0.04683448     0.13200
C871        C  0.27481550  0.63427047  0.86346887     0.19200
C872        C  0.26147185  0.64258995  0.84744253    -0.18800
C873        C  0.23922861  0.64063773  0.84897945    -0.11100
C874        C  0.22989434  0.62994839  0.86643953     0.21500
C875        C  0.24322223  0.62112202  0.88217560    -0.20500
C876        C  0.26545771  0.62338655  0.88083158    -0.11300
C877        C  0.20636437  0.62727454  0.86821129    -0.15500
C878        C  0.19269406  0.64276369  0.86230315    -0.29300
C879        C  0.29839741  0.63629050  0.86107881    -0.03600
C880        C  0.31190541  0.63690380  0.87783577    -0.40100
H881        H  0.26828502  0.65071085  0.83373682     0.12700
H882        H  0.22936974  0.64711821  0.83628811     0.12300
H883        H  0.23639217  0.61257935  0.89561212     0.11700
H884        H  0.27525891  0.61614999  0.89313342     0.12000
H885        H  0.20022323  0.61278532  0.87559542     0.14700
H886        H  0.19889624  0.65798024  0.85663945     0.13500
H887        H  0.30477307  0.63783549  0.84499023     0.11200
H888        H  0.30566320  0.63663457  0.89402202     0.13200
C889        C  0.98018416  0.61812648  0.87166642     0.19200
C890        C  0.99189585  0.63506561  0.88060136    -0.18800
C891        C  0.01426148  0.63489791  0.88048580    -0.11100
C892        C  0.02554934  0.61785771  0.87107244     0.21500
C893        C  0.01387890  0.60068361  0.86252086    -0.20500
C894        C  0.99144954  0.60083369  0.86266198    -0.11300
C895        C  0.04938457  0.61752770  0.86999058    -0.15500
C896        C  0.06123449  0.63551590  0.86976694    -0.29300
C897        C  0.95638203  0.61968610  0.87134281    -0.03600
C898        C  0.94306838  0.60291619  0.86873787    -0.40100
H899        H  0.98368821  0.64852699  0.88775424     0.12700
H900        H  0.02258572  0.64809448  0.88795470     0.12300
H901        H  0.02214407  0.58732312  0.85525894     0.11700
H902        H  0.98311158  0.58764433  0.85521773     0.12000
H903        H  0.05730366  0.60215141  0.86836434     0.14700
H904        H  0.05342381  0.65099611  0.87010686     0.13500
H905        H  0.94949731  0.63543992  0.87386062     0.11200
H906        H  0.94938098  0.58684709  0.86722324     0.13200
C907        C  0.26796070  0.63126001  0.12930935     0.19200
C908        C  0.25519518  0.61948398  0.14352900    -0.18800
C909        C  0.23298762  0.61851479  0.14075548    -0.11100
C910        C  0.22308433  0.62967070  0.12388842     0.21500
C911        C  0.23575589  0.64211137  0.11018396    -0.20500
C912        C  0.25798076  0.64278775  0.11272992    -0.11300
C913        C  0.19956157  0.62905183  0.12056022    -0.15500
C914        C  0.18788544  0.61136530  0.12423713    -0.29300
C915        C  0.29155081  0.63161383  0.13235034    -0.03600
C916        C  0.30520227  0.63309464  0.11580246    -0.40100
H917        H  0.26246016  0.61077191  0.15662312     0.12700
H918        H  0.22356467  0.60928739  0.15199183     0.12300
H919        H  0.22845625  0.65110820  0.09730282     0.11700
H920        H  0.26727197  0.65260049  0.10189331     0.12000
H921        H  0.19187301  0.64310640  0.11382448     0.14700
H922        H  0.19576696  0.59679375  0.12946401     0.13500
H923        H  0.29781284  0.62959555  0.14843116     0.11200
H924        H  0.29901640  0.63361265  0.09958866     0.13200
C925        C  0.97432555  0.61646583  0.11512648     0.19200
C926        C  0.98656420  0.59794573  0.11842758    -0.18800
C927        C  0.00892070  0.59861349  0.11746367    -0.11100
C928        C  0.01966038  0.61788749  0.11280043     0.21500
C929        C  0.00738581  0.63638572  0.10932962    -0.20500
C930        C  0.98501169  0.63572217  0.11036849    -0.11300
C931        C  0.04348868  0.61966184  0.11221446    -0.15500
C932        C  0.05686297  0.60278548  0.11131502    -0.29300
C933        C  0.95054279  0.61479245  0.11612010    -0.03600
C934        C  0.93742476  0.63154287  0.11950901    -0.40100
H935        H  0.97878479  0.58288666  0.12205943     0.12700
H936        H  0.01754315  0.58402173  0.12079846     0.12300
H937        H  0.01514815  0.65145176  0.10569983     0.11700
H938        H  0.97624339  0.65025703  0.10708969     0.12000
H939        H  0.05031557  0.63564221  0.11268041     0.14700
H940        H  0.05063645  0.58665150  0.11031527     0.13500
H941        H  0.94357758  0.59895983  0.11437032     0.11200
H942        H  0.94398082  0.64738626  0.12214034     0.13200
C943        C  0.12914298  0.62091898  0.01400137     0.19200
C944        C  0.13045496  0.64063627  0.00327690    -0.18800
C945        C  0.13128163  0.64163077  0.98093499    -0.11100
C946        C  0.13064598  0.62279994  0.96861256     0.21500
C947        C  0.12951002  0.60306419  0.97934889    -0.20500
C948        C  0.12869904  0.60207099  0.00171359    -0.11300
C949        C  0.13102810  0.62277856  0.94470047    -0.15500
C950        C  0.12937041  0.64037970  0.93228838    -0.29300
C951        C  0.12776430  0.62107349  0.03784637    -0.03600
C952        C  0.12875290  0.60362234  0.05054970    -0.40100
H953        H  0.13084891  0.65543824  0.01224835     0.12700
H954        H  0.13249641  0.65723202  0.97362239     0.12300
H955        H  0.12900730  0.58827561  0.97036752     0.11700
H956        H  0.12742624  0.58649786  0.00909115     0.12000
H957        H  0.13219863  0.60730534  0.93689570     0.14700
H958        H  0.12785213  0.65610914  0.93932955     0.13500
H959        H  0.12586327  0.63660961  0.04537896     0.11200
H960        H  0.13098459  0.58782574  0.04384425     0.13200
C961        C  0.63692683  0.24596453  0.11506787     0.19200
C962        C  0.64424019  0.25934705  0.09857657    -0.18800
C963        C  0.64064272  0.28146113  0.09936340    -0.11100
C964        C  0.62987863  0.29060741  0.11688981     0.21500
C965        C  0.62288587  0.27720363  0.13347909    -0.20500
C966        C  0.62625443  0.25515183  0.13256954    -0.11300
C967        C  0.62671017  0.31404614  0.11926310    -0.15500
C968        C  0.62653809  0.32805979  0.10289701    -0.29300
C969        C  0.64141030  0.22264012  0.11425986    -0.03600
C970        C  0.62792791  0.20809402  0.12261336    -0.40100
H971        H  0.65276414  0.25266458  0.08507155     0.12700
H972        H  0.64683112  0.29131589  0.08655443     0.12300
H973        H  0.61486577  0.28384952  0.14730842     0.11700
H974        H  0.62098826  0.24540653  0.14588027     0.12000
H975        H  0.62396079  0.31996681  0.13536074     0.14700
H976        H  0.62830079  0.32254844  0.08655532     0.13500
H977        H  0.65573913  0.21728881  0.10602218     0.11200
H978        H  0.61271883  0.21323874  0.12922416     0.13200
C979        C  0.64062544  0.26529332  0.87890280     0.19200
C980        C  0.65762650  0.25315543  0.88715854    -0.18800
C981        C  0.65884667  0.23109124  0.88340232    -0.11100
C982        C  0.64280599  0.22061250  0.87157111     0.21500
C983        C  0.62578698  0.23279552  0.86336026    -0.20500
C984        C  0.62476187  0.25489694  0.86682125    -0.11300
C985        C  0.64214652  0.19689507  0.86919259    -0.15500
C986        C  0.65939636  0.18398990  0.87058679    -0.29300
C987        C  0.63916009  0.28846105  0.88416442    -0.03600
C988        C  0.63104864  0.30306324  0.87056246    -0.40100
H989        H  0.66992263  0.26075939  0.89670421     0.12700
H990        H  0.67190163  0.22222747  0.89050801     0.12300
H991        H  0.61304019  0.22511425  0.85448519     0.11700
H992        H  0.61115947  0.26368034  0.86066867     0.12000
H993        H  0.62656218  0.18972739  0.86635434     0.14700
H994        H  0.67529182  0.19076325  0.87222976     0.13500
H995        H  0.64585288  0.29378120  0.89929130     0.11200
H996        H  0.62601976  0.29817028  0.85468195     0.13200
C997        C  0.64567155  0.13523427  0.02036354     0.19200
C998        C  0.66423420  0.13676758  0.00779948    -0.18800
C999        C  0.66338089  0.13407086  0.98560292    -0.11100
C1000       C  0.64384592  0.12952309  0.97533453     0.21500
C1001       C  0.62526787  0.12804339  0.98786096    -0.20500
C1002       C  0.62611591  0.13072990  0.01007711    -0.11300
C1003       C  0.64197312  0.12687908  0.95167479    -0.15500
C1004       C  0.65866192  0.12279117  0.93867228    -0.29300
C1005       C  0.64772343  0.13809589  0.04400313    -0.03600
C1006       C  0.63114159  0.13948562  0.05772670    -0.40100
H1007       H  0.67952257  0.14025129  0.01518025     0.12700
H1008       H  0.67804591  0.13598241  0.97665772     0.12300
H1009       H  0.60999027  0.12463604  0.98042961     0.11700
H1010       H  0.61139020  0.12903357  0.01892741     0.12000
H1011       H  0.62608504  0.12805433  0.94472075     0.14700
H1012       H  0.67459073  0.12078318  0.94520722     0.13500
H1013       H  0.66384559  0.13906036  0.05045080     0.11200
H1014       H  0.61480235  0.13874951  0.05203847     0.13200
C1015       C  0.62847024  0.72166625  0.88625274     0.19200
C1016       C  0.61559614  0.73438513  0.87296459    -0.18800
C1017       C  0.61714955  0.75668739  0.87344461    -0.11100
C1018       C  0.63180510  0.76684774  0.88718262     0.21500
C1019       C  0.64482530  0.75412265  0.90036702    -0.20500
C1020       C  0.64310603  0.73176774  0.90004554    -0.11300
C1021       C  0.63464728  0.79051968  0.88725323    -0.15500
C1022       C  0.61892351  0.80421880  0.88183297    -0.29300
C1023       C  0.62720713  0.69801033  0.88407362    -0.03600
C1024       C  0.63244234  0.68407574  0.89967068    -0.40100
H1025       H  0.60442110  0.72701024  0.86196979     0.12700
H1026       H  0.60731512  0.76583141  0.86252238     0.12300
H1027       H  0.65645599  0.76150824  0.91086509     0.11700
H1028       H  0.65371918  0.72247761  0.91008554     0.12000
H1029       H  0.65001514  0.79684932  0.89234436     0.14700
H1030       H  0.60310453  0.79816423  0.87804150     0.13500
H1031       H  0.62107669  0.69181207  0.86904064     0.11200
H1032       H  0.63716069  0.68982227  0.91534330     0.13200
C1033       C  0.65859486  0.01454816  0.87433606     0.19200
C1034       C  0.64028792  0.00519145  0.88360210    -0.18800
C1035       C  0.63739584  0.98299967  0.88338817    -0.11100
C1036       C  0.65279027  0.96952874  0.87405098     0.21500
C1037       C  0.67123560  0.97880607  0.86519433    -0.20500
C1038       C  0.67408648  0.00103602  0.86530258    -0.11300
C1039       C  0.65069711  0.94578224  0.87442401    -0.15500
C1040       C  0.63176625  0.93553491  0.87567359    -0.29300
C1041       C  0.66229229  0.03816223  0.87421217    -0.03600
C1042       C  0.64645013  0.05258098  0.87649597    -0.40100
H1043       H  0.62833186  0.01479802  0.89155258     0.12700
H1044       H  0.62338590  0.97647259  0.89115402     0.12300
H1045       H  0.68349140  0.96880613  0.85813077     0.11700
H1046       H  0.68843625  0.00770572  0.85824334     0.12000
H1047       H  0.66528188  0.93640178  0.87319813     0.14700
H1048       H  0.61694786  0.94457275  0.87545985     0.13500
H1049       H  0.67845220  0.04386000  0.87126628     0.11200
H1050       H  0.63004987  0.04725540  0.87828657     0.13200
C1051       C  0.62637204  0.74477997  0.12716690     0.19200
C1052       C  0.64227227  0.75655326  0.13773014    -0.18800
C1053       C  0.64166004  0.77893022  0.13780775    -0.11100
C1054       C  0.62490374  0.78991168  0.12750327     0.21500
C1055       C  0.60871520  0.77806279  0.11746167    -0.20500
C1056       C  0.60945980  0.75575286  0.11718807    -0.11300
C1057       C  0.62318344  0.81358664  0.12757907    -0.15500
C1058       C  0.64000092  0.82682209  0.12993333    -0.29300
C1059       C  0.62739384  0.72108466  0.12715251    -0.03600
C1060       C  0.62068401  0.70954173  0.11034038    -0.40100
H1061       H  0.65527591  0.74841361  0.14578471     0.12700
H1062       H  0.65406517  0.78748202  0.14631477     0.12300
H1063       H  0.59545830  0.78610947  0.10972638     0.11700
H1064       H  0.59657785  0.74711566  0.10947716     0.12000
H1065       H  0.60742811  0.82039109  0.12480131     0.14700
H1066       H  0.65605955  0.82047682  0.13159830     0.13500
H1067       H  0.63464039  0.71306820  0.14076770     0.11200
H1068       H  0.61502686  0.71763686  0.09604324     0.13200
C1069       C  0.63616550  0.04039339  0.12577688     0.19200
C1070       C  0.61834663  0.02752138  0.12125921    -0.18800
C1071       C  0.61991198  0.00523903  0.12165678    -0.11100
C1072       C  0.63939304  0.99522481  0.12693766     0.21500
C1073       C  0.65725172  0.00811261  0.13137520    -0.20500
C1074       C  0.65569343  0.03043084  0.13091843    -0.11300
C1075       C  0.64194655  0.97153996  0.12763255    -0.15500
C1076       C  0.62546786  0.95767276  0.12823277    -0.29300
C1077       C  0.63338079  0.06401446  0.12548460    -0.03600
C1078       C  0.64957937  0.07815788  0.12417653    -0.40100
H1079       H  0.60312160  0.03475168  0.11721414     0.12700
H1080       H  0.60583600  0.99611961  0.11750733     0.12300
H1081       H  0.67246219  0.00087538  0.13545438     0.11700
H1082       H  0.66972223  0.03966934  0.13499879     0.12000
H1083       H  0.65815315  0.96526881  0.12803074     0.14700
H1084       H  0.60910278  0.96333850  0.12850652     0.13500
H1085       H  0.61706501  0.07001963  0.12579589     0.11200
H1086       H  0.66600716  0.07275677  0.12292313     0.13200
C1087       C  0.62853178  0.87716054  0.98207491     0.19200
C1088       C  0.64607595  0.87364282  0.99566439    -0.18800
C1089       C  0.64418309  0.87626272  0.01778745    -0.11100
C1090       C  0.62463732  0.88269181  0.02690700     0.21500
C1091       C  0.60699932  0.88591420  0.01341830    -0.20500
C1092       C  0.60890055  0.88337660  0.99126173    -0.11300
C1093       C  0.62192380  0.88550616  0.05038925    -0.15500
C1094       C  0.63825575  0.89023438  0.06359168    -0.29300
C1095       C  0.63172666  0.87467903  0.95854584    -0.03600
C1096       C  0.61578958  0.87434281  0.94402903    -0.40100
H1097       H  0.66136019  0.86874515  0.98913707     0.12700
H1098       H  0.65799000  0.87287595  0.02764677     0.12300
H1099       H  0.59172843  0.89073641  0.02003291     0.11700
H1100       H  0.59498443  0.88666013  0.98157431     0.12000
H1101       H  0.60590148  0.88392190  0.05694925     0.14700
H1102       H  0.65418593  0.89275274  0.05718293     0.13500
H1103       H  0.64808282  0.87294500  0.95291996     0.11200
H1104       H  0.59924201  0.87548257  0.94900110     0.13200
C1105       C  0.23043122  0.38778120  0.86316401     0.19200
C1106       C  0.24373900  0.37438579  0.87531415    -0.18800
C1107       C  0.26599120  0.37553757  0.87331651    -0.11100
C1108       C  0.27541084  0.38992674  0.85881659     0.21500
C1109       C  0.26212486  0.40308964  0.84639286    -0.20500
C1110       C  0.23985445  0.40218876  0.84864320    -0.11300
C1111       C  0.29893330  0.39065860  0.85554724    -0.15500
C1112       C  0.31298948  0.38734727  0.87150889    -0.29300
C1113       C  0.20686122  0.38524122  0.86501750    -0.03600
C1114       C  0.19278657  0.40101461  0.86089619    -0.40100
H1115       H  0.23687542  0.36290671  0.88633495     0.12700
H1116       H  0.27576060  0.36472299  0.88268155     0.12300
H1117       H  0.26901029  0.41407078  0.83489009     0.11700
H1118       H  0.23009095  0.41229757  0.83852577     0.12000
H1119       H  0.30482537  0.39478761  0.83972892     0.14700
H1120       H  0.30725097  0.38491890  0.88771464     0.13500
H1121       H  0.20091135  0.36980348  0.87035937     0.11200
H1122       H  0.19843258  0.41689611  0.85673737     0.13200
C1123       C  0.26879106  0.38148936  0.10153784     0.19200
C1124       C  0.25461155  0.39385018  0.08930326    -0.18800
C1125       C  0.23247331  0.39169054  0.09197477    -0.11100
C1126       C  0.22416201  0.37679451  0.10668832     0.21500
C1127       C  0.23835895  0.36396107  0.11837180    -0.20500
C1128       C  0.26044160  0.36637164  0.11597229    -0.11300
C1129       C  0.20082438  0.37358179  0.10957485    -0.15500
C1130       C  0.18650630  0.38949804  0.10759735    -0.29300
C1131       C  0.29220711  0.38404450  0.09859659    -0.03600
C1132       C  0.30591504  0.38203590  0.11502848    -0.40100
H1133       H  0.26068448  0.40532540  0.07783144     0.12700
H1134       H  0.22191872  0.40136011  0.08221837     0.12300
H1135       H  0.23233434  0.35213296  0.12950802     0.11700
H1136       H  0.27095853  0.35609986  0.12514165     0.12000
H1137       H  0.19537249  0.35776812  0.11430371     0.14700
H1138       H  0.19189729  0.40564586  0.10416289     0.13500
H1139       H  0.29818814  0.38819361  0.08282259     0.11200
H1140       H  0.29976429  0.37940709  0.13105513     0.13200
C1141       C  0.12283194  0.38649645  0.96473585     0.19200
C1142       C  0.11591094  0.36906548  0.97708149    -0.18800
C1143       C  0.11425725  0.37068181  0.99932106    -0.11100
C1144       C  0.11986541  0.38976737  0.00986529     0.21500
C1145       C  0.12656596  0.40730126  0.99750914    -0.20500
C1146       C  0.12817576  0.40569715  0.97522320    -0.11300
C1147       C  0.11885270  0.39199300  0.03359390    -0.15500
C1148       C  0.11984217  0.37519426  0.04707111    -0.29300
C1149       C  0.12474452  0.38371391  0.94114157    -0.03600
C1150       C  0.12476711  0.40002452  0.92705482    -0.40100
H1151       H  0.11159511  0.35412546  0.96945532     0.12700
H1152       H  0.10833818  0.35698307  0.00806827     0.12300
H1153       H  0.13095559  0.42220132  0.00517041     0.11700
H1154       H  0.13405154  0.41938538  0.96642379     0.12000
H1155       H  0.11833027  0.40805386  0.04019508     0.14700
H1156       H  0.12161450  0.35912467  0.04083376     0.13500
H1157       H  0.12536618  0.36744454  0.93507848     0.11200
H1158       H  0.12304594  0.41636227  0.93257890     0.13200
C1159       C  0.77427510  0.38161849  0.87377970     0.19200
C1160       C  0.76037812  0.39302924  0.88716270    -0.18800
C1161       C  0.73829487  0.38977369  0.88607611    -0.11100
C1162       C  0.72962202  0.37522787  0.87129777     0.21500
C1163       C  0.74343059  0.36417920  0.85753278    -0.20500
C1164       C  0.76558829  0.36717456  0.85885665    -0.11300
C1165       C  0.70619212  0.37199904  0.86950344    -0.15500
C1166       C  0.69341428  0.37201849  0.88676256    -0.29300
C1167       C  0.79758426  0.38595706  0.87519838    -0.03600
C1168       C  0.81265318  0.37146217  0.87018859    -0.40100
H1169       H  0.76664722  0.40447278  0.89855032     0.12700
H1170       H  0.72799205  0.39898888  0.89649065     0.12300
H1171       H  0.73705424  0.35312690  0.84582623     0.11700
H1172       H  0.77578121  0.35857681  0.84784532     0.12000
H1173       H  0.69945471  0.36881843  0.85380851     0.14700
H1174       H  0.70037713  0.37356973  0.90260440     0.13500
H1175       H  0.80249250  0.40141575  0.88143220     0.11200
H1176       H  0.80807349  0.35547989  0.86520890     0.13200
C1177       C  0.02449071  0.39329382  0.86384518     0.19200
C1178       C  0.01148820  0.41001179  0.87124577    -0.18800
C1179       C  0.98941626  0.40714732  0.87368997    -0.11100
C1180       C  0.97978722  0.38743941  0.86850085     0.21500
C1181       C  0.99280085  0.37086607  0.86077291    -0.20500
C1182       C  0.01483040  0.37373200  0.85835774    -0.11300
C1183       C  0.95641042  0.38324151  0.87061539    -0.15500
C1184       C  0.94159402  0.39807613  0.87553228    -0.29300
C1185       C  0.04794832  0.39692587  0.86196983    -0.03600
C1186       C  0.06244431  0.38099725  0.86209237    -0.40100
H1187       H  0.01848956  0.42528532  0.87546016     0.12700
H1188       H  0.98021812  0.42041339  0.87980041     0.12300
H1189       H  0.98587079  0.35559479  0.85643149     0.11700
H1190       H  0.02408808  0.36063987  0.85191019     0.12000
H1191       H  0.95102988  0.36706076  0.86724627     0.14700
H1192       H  0.94606612  0.41451693  0.87859695     0.13500
H1193       H  0.05353831  0.41337886  0.86160274     0.11200
H1194       H  0.05734290  0.36449538  0.86360404     0.13200
C1195       C  0.72235897  0.39191746  0.12948448     0.19200
C1196       C  0.73475019  0.37565990  0.13873579    -0.18800
C1197       C  0.75711841  0.37667365  0.13812570    -0.11100
C1198       C  0.76748609  0.39420840  0.12849283     0.21500
C1199       C  0.75501994  0.41075793  0.11985272    -0.20500
C1200       C  0.73270603  0.40959837  0.12020944    -0.11300
C1201       C  0.79116369  0.39629317  0.12782500    -0.15500
C1202       C  0.80468339  0.37954418  0.12834828    -0.29300
C1203       C  0.69869560  0.39034811  0.13003770    -0.03600
C1204       C  0.68646152  0.39740674  0.11382825    -0.40100
H1205       H  0.72709674  0.36204216  0.14623992     0.12700
H1206       H  0.76616790  0.36393231  0.14556452     0.12300
H1207       H  0.76258774  0.42459513  0.11266937     0.11700
H1208       H  0.72357265  0.42270939  0.11350945     0.12000
H1209       H  0.79768590  0.41229426  0.12593521     0.14700
H1210       H  0.79853586  0.36333203  0.12900923     0.13500
H1211       H  0.69128508  0.38218106  0.14347330     0.11200
H1212       H  0.69394372  0.40398744  0.09959808     0.13200
C1213       C  0.01826235  0.38390153  0.11661387     0.19200
C1214       C  0.00502369  0.40086509  0.11015193    -0.18800
C1215       C  0.98273717  0.39920461  0.11147757    -0.11100
C1216       C  0.97310682  0.38052254  0.11956228     0.21500
C1217       C  0.98630724  0.36347240  0.12583879    -0.20500
C1218       C  0.00860866  0.36514224  0.12455377    -0.11300
C1219       C  0.94945608  0.37797248  0.12118321    -0.15500
C1220       C  0.93569310  0.39451973  0.12233345    -0.29300
C1221       C  0.04192780  0.38679270  0.11537626    -0.03600
C1222       C  0.05619306  0.37064946  0.11618290    -0.40100
H1223       H  0.01195919  0.41546861  0.10391522     0.12700
H1224       H  0.97319225  0.41248584  0.10583611     0.12300
H1225       H  0.97933708  0.34888063  0.13206371     0.11700
H1226       H  0.01808156  0.35182820  0.13019363     0.12000
H1227       H  0.94320048  0.36178217  0.12210542     0.14700
H1228       H  0.94160422  0.41081949  0.12251854     0.13500
H1229       H  0.04784134  0.40300515  0.11327706     0.11200
H1230       H  0.05082925  0.35421296  0.11738581     0.13200
C1231       C  0.87486570  0.38425031  0.97737898     0.19200
C1232       C  0.87817488  0.40183746  0.99090711    -0.18800
C1233       C  0.87751249  0.39950544  0.01313026    -0.11100
C1234       C  0.87320120  0.37945789  0.02247548     0.21500
C1235       C  0.87026589  0.36176271  0.00898620    -0.20500
C1236       C  0.87094387  0.36409308  0.98670054    -0.11300
C1237       C  0.87223709  0.37636063  0.04612019    -0.15500
C1238       C  0.86818024  0.39240606  0.05987993    -0.29300
C1239       C  0.87496405  0.38795784  0.95380268    -0.03600
C1240       C  0.87670860  0.37240058  0.93901432    -0.40100
H1241       H  0.88137756  0.41751434  0.98424258     0.12700
H1242       H  0.88070649  0.41344940  0.02282529     0.12300
H1243       H  0.86708729  0.34611004  0.01571799     0.11700
H1244       H  0.86793076  0.35013264  0.97698693     0.12000
H1245       H  0.87470969  0.36032377  0.05235667     0.14700
H1246       H  0.86481193  0.40833739  0.05390955     0.13500
H1247       H  0.87398067  0.40445109  0.94837952     0.11200
H1248       H  0.87868977  0.35586202  0.94382163     0.13200
C1249       C  0.36037639  0.73739779  0.12909718     0.19200
C1250       C  0.34495897  0.74857312  0.14095562    -0.18800
C1251       C  0.34457013  0.77094739  0.14097137    -0.11100
C1252       C  0.35984569  0.78267170  0.12929957     0.21500
C1253       C  0.37545607  0.77148073  0.11767708    -0.20500
C1254       C  0.37565116  0.74908108  0.11741839    -0.11300
C1255       C  0.36060985  0.80646726  0.12980340    -0.15500
C1256       C  0.34323720  0.81875411  0.13312064    -0.29300
C1257       C  0.36098848  0.71367268  0.13049239    -0.03600
C1258       C  0.36810397  0.70095849  0.11463624    -0.40100
H1259       H  0.33323599  0.73994076  0.15035672     0.12700
H1260       H  0.33269377  0.77895868  0.15066189     0.12300
H1261       H  0.38759234  0.78011184  0.10881845     0.11700
H1262       H  0.38815018  0.74097692  0.10861385     0.12000
H1263       H  0.37589768  0.81412797  0.12666377     0.14700
H1264       H  0.32759946  0.81141015  0.13482675     0.13500
H1265       H  0.35472550  0.70637304  0.14497498     0.11200
H1266       H  0.37293550  0.70784413  0.09944860     0.13200
C1267       C  0.37741378  0.74097627  0.88091519     0.19200
C1268       C  0.36610966  0.75377262  0.89544091    -0.18800
C1269       C  0.36783970  0.77606544  0.89471117    -0.11100
C1270       C  0.38123632  0.78599853  0.87960168     0.21500
C1271       C  0.39285660  0.77317966  0.86533270    -0.20500
C1272       C  0.39084911  0.75089536  0.86583059    -0.11300
C1273       C  0.38433021  0.80954471  0.87915032    -0.15500
C1274       C  0.36893984  0.82349510  0.88477246    -0.29300
C1275       C  0.37591584  0.71734958  0.88275219    -0.03600
C1276       C  0.37772372  0.70416054  0.86586945    -0.40100
H1277       H  0.35594483  0.74647997  0.90742665     0.12700
H1278       H  0.35916521  0.78542616  0.90638964     0.12300
H1279       H  0.40354315  0.78044059  0.85378830     0.11700
H1280       H  0.40030016  0.74146106  0.85482683     0.12000
H1281       H  0.39959362  0.81557774  0.87341702     0.14700
H1282       H  0.35314469  0.81773628  0.88911204     0.13500
H1283       H  0.37267489  0.71065228  0.89846020     0.11200
H1284       H  0.37948057  0.71071792  0.84988599     0.13200
C1285       C  0.36557522  0.88781697  0.03361894     0.19200
C1286       C  0.38413796  0.88122583  0.02282134    -0.18800
C1287       C  0.38523016  0.88178728  0.00044117    -0.11100
C1288       C  0.36774211  0.88920982  0.98832871     0.21500
C1289       C  0.34933506  0.89611186  0.99918522    -0.20500
C1290       C  0.34825358  0.89555421  0.02149596    -0.11300
C1291       C  0.36748339  0.88966320  0.96448739    -0.15500
C1292       C  0.38453869  0.88631373  0.95169176    -0.29300
C1293       C  0.36508377  0.88682509  0.05744641    -0.03600
C1294       C  0.34688262  0.88663635  0.06899431    -0.40100
H1295       H  0.39777687  0.87533923  0.03173828     0.12700
H1296       H  0.39966949  0.87609889  0.99286665     0.12300
H1297       H  0.33566048  0.90205408  0.99034554     0.11700
H1298       H  0.33390160  0.90150440  0.02906434     0.12000
H1299       H  0.35218950  0.89323187  0.95702331     0.14700
H1300       H  0.40024260  0.88324690  0.95834265     0.13500
H1301       H  0.38030391  0.88562452  0.06575684     0.11200
H1302       H  0.33146108  0.88684146  0.06106642     0.13200
C1303       C  0.37680162  0.28460449  0.86092776     0.19200
C1304       C  0.36198822  0.27114814  0.85083458    -0.18800
C1305       C  0.36296241  0.24901591  0.85376333    -0.11100
C1306       C  0.37906892  0.23989398  0.86657153     0.21500
C1307       C  0.39431162  0.25329587  0.87611135    -0.20500
C1308       C  0.39309717  0.27548840  0.87350190    -0.11300
C1309       C  0.38065054  0.21642170  0.86956294    -0.15500
C1310       C  0.36319761  0.20396190  0.87090783    -0.29300
C1311       C  0.37533774  0.30799482  0.85741664    -0.03600
C1312       C  0.38041761  0.32228330  0.87262660    -0.40100
H1313       H  0.34951996  0.27780568  0.84080776     0.12700
H1314       H  0.35135703  0.23904001  0.84565452     0.12300
H1315       H  0.40704548  0.24658447  0.88575494     0.11700
H1316       H  0.40514089  0.28544216  0.88097332     0.12000
H1317       H  0.39642617  0.20937726  0.87141803     0.14700
H1318       H  0.34740548  0.21119727  0.87063929     0.13500
H1319       H  0.36898011  0.31356246  0.84222532     0.11200
H1320       H  0.38537090  0.31681436  0.88835372     0.13200
C1321       C  0.37861145  0.03618938  0.87825840     0.19200
C1322       C  0.39584490  0.02423954  0.88626509    -0.18800
C1323       C  0.39422916  0.00200385  0.88850029    -0.11100
C1324       C  0.37535206  0.99127454  0.88244574     0.21500
C1325       C  0.35831754  0.00323136  0.87409380    -0.20500
C1326       C  0.35994976  0.02536673  0.87182895    -0.11300
C1327       C  0.37245702  0.96779673  0.88477803    -0.15500
C1328       C  0.38867616  0.95374474  0.88615875    -0.29300
C1329       C  0.38043957  0.05985148  0.87677581    -0.03600
C1330       C  0.36324367  0.07268605  0.87812728    -0.40100
H1331       H  0.41041936  0.03218740  0.89124189     0.12700
H1332       H  0.40759952  0.99345823  0.89537888     0.12300
H1333       H  0.34368413  0.99537830  0.86913035     0.11700
H1334       H  0.34660188  0.03387123  0.86482817     0.12000
H1335       H  0.35617235  0.96171948  0.88416142     0.14700
H1336       H  0.40514074  0.95918621  0.88567768     0.13500
H1337       H  0.39629491  0.06687474  0.87552190     0.11200
H1338       H  0.34751164  0.06584641  0.88079229     0.13200
C1339       C  0.37062527  0.28067006  0.12582292     0.19200
C1340       C  0.38380906  0.26844816  0.13924590    -0.18800
C1341       C  0.38330479  0.24608861  0.13845202    -0.11100
C1342       C  0.36925406  0.23545704  0.12445641     0.21500
C1343       C  0.35558156  0.24766307  0.11148412    -0.20500
C1344       C  0.35636107  0.27005023  0.11199832    -0.11300
C1345       C  0.36799723  0.21171489  0.12376074    -0.15500
C1346       C  0.38524782  0.19917970  0.12664732    -0.29300
C1347       C  0.37179347  0.30440992  0.12692797    -0.03600
C1348       C  0.36890897  0.31688538  0.10965121    -0.40100
H1349       H  0.39470270  0.27623827  0.15022510     0.12700
H1350       H  0.39361464  0.23715424  0.14912243     0.12300
H1351       H  0.34439578  0.23984806  0.10081237     0.11700
H1352       H  0.34553058  0.27899825  0.10186177     0.12000
H1353       H  0.35270677  0.20441288  0.11988348     0.14700
H1354       H  0.40090192  0.20642743  0.12871563     0.13500
H1355       H  0.37630565  0.31170000  0.14202991     0.11200
H1356       H  0.36579445  0.30954694  0.09423020     0.13200
C1357       C  0.36429303  0.98614133  0.13283235     0.19200
C1358       C  0.38153429  0.99650826  0.12285965    -0.18800
C1359       C  0.38237172  0.01885163  0.12166721    -0.11100
C1360       C  0.36605163  0.03141996  0.13078584     0.21500
C1361       C  0.34886977  0.02101561  0.14085238    -0.20500
C1362       C  0.34801030  0.99867942  0.14198919    -0.11300
C1363       C  0.36604248  0.05527334  0.12992670    -0.15500
C1364       C  0.38346355  0.06722284  0.12563554    -0.29300
C1365       C  0.36407315  0.96232785  0.13365607    -0.03600
C1366       C  0.34606994  0.95067210  0.13576200    -0.40100
H1367       H  0.39428849  0.98725885  0.11567689     0.12700
H1368       H  0.39566990  0.02603616  0.11328205     0.12300
H1369       H  0.33610745  0.03022980  0.14806787     0.11700
H1370       H  0.33474209  0.99139131  0.15036080     0.12000
H1371       H  0.35113272  0.06336846  0.13369494     0.14700
H1372       H  0.39878834  0.05969577  0.12268282     0.13500
H1373       H  0.37920622  0.95407854  0.13143421     0.11200
H1374       H  0.33063764  0.95853074  0.13668234     0.13200
C1375       C  0.37023926  0.13724459  0.97811411     0.19200
C1376       C  0.35452009  0.14262288  0.99315455    -0.18800
C1377       C  0.35906012  0.14229810  0.01504535    -0.11100
C1378       C  0.37943682  0.13613910  0.02248658     0.21500
C1379       C  0.39515960  0.13071210  0.00743230    -0.20500
C1380       C  0.39062686  0.13109444  0.98551435    -0.11300
C1381       C  0.38498630  0.13554810  0.04567867    -0.15500
C1382       C  0.37021053  0.13417924  0.06126320    -0.29300
C1383       C  0.36458285  0.13781407  0.95498303    -0.03600
C1384       C  0.37917934  0.13979063  0.93931355    -0.40100
H1385       H  0.33870079  0.14741100  0.98792543     0.12700
H1386       H  0.34660778  0.14727090  0.02592980     0.12300
H1387       H  0.41096831  0.12589621  0.01266579     0.11700
H1388       H  0.40305011  0.12618945  0.97454781     0.12000
H1389       H  0.40182156  0.13570558  0.05003095     0.14700
H1390       H  0.35337536  0.13308382  0.05726290     0.13500
H1391       H  0.34773327  0.13707443  0.95074868     0.11200
H1392       H  0.39601384  0.14136073  0.94319891     0.13200
C1393       C  0.86932333  0.02876193  0.65328079     0.19200
C1394       C  0.87935370  0.01530222  0.63844532    -0.18800
C1395       C  0.87994590  0.99320946  0.64157383    -0.11100
C1396       C  0.87004929  0.98382703  0.65949002     0.21500
C1397       C  0.86038685  0.99730595  0.67465920    -0.20500
C1398       C  0.85992697  0.01957083  0.67158515    -0.11300
C1399       C  0.86985113  0.96014503  0.66271190    -0.15500
C1400       C  0.87110976  0.94631772  0.64623408    -0.29300
C1401       C  0.86864125  0.05207589  0.64844820    -0.03600
C1402       C  0.86646610  0.06762179  0.66317299    -0.40100
H1403       H  0.88692440  0.02194271  0.62434122     0.12700
H1404       H  0.88838838  0.98361474  0.62994458     0.12300
H1405       H  0.85280462  0.99055388  0.68870079     0.11700
H1406       H  0.85179798  0.02939428  0.68325638     0.12000
H1407       H  0.86807122  0.95398843  0.67886643     0.14700
H1408       H  0.87163162  0.95236427  0.62997956     0.13500
H1409       H  0.87129987  0.05668934  0.63189918     0.11200
H1410       H  0.86493257  0.06361255  0.67998809     0.13200
C1411       C  0.01731231  0.10938386  0.62956373     0.19200
C1412       C  0.00546804  0.10730684  0.64853450    -0.18800
C1413       C  0.98331616  0.11038759  0.64869934    -0.11100
C1414       C  0.97234201  0.11582856  0.62981381     0.21500
C1415       C  0.98406329  0.11754056  0.61073079    -0.20500
C1416       C  0.00628623  0.11448706  0.61055994    -0.11300
C1417       C  0.94870503  0.11915036  0.62931430    -0.15500
C1418       C  0.93710034  0.12448182  0.64667601    -0.29300
C1419       C  0.04104482  0.10677746  0.63080463    -0.03600
C1420       C  0.05448788  0.10685122  0.61393826    -0.40100
H1421       H  0.01340710  0.10327058  0.66340035     0.12700
H1422       H  0.97490445  0.10814431  0.66363143     0.12300
H1423       H  0.97601879  0.12153023  0.59590901     0.11700
H1424       H  0.01458557  0.11644374  0.59554361    -0.02400
H1425       H  0.94065393  0.11758274  0.61399069     0.14700
H1426       H  0.94495386  0.12718706  0.66189937     0.13500
H1427       H  0.04787759  0.10508869  0.64669691     0.11200
H1428       H  0.04845127  0.10824189  0.59776874     0.13200
C1429       C  0.97609901  0.87421732  0.64051980     0.19200
C1430       C  0.98736566  0.86103096  0.62627062    -0.18800
C1431       C  0.00939712  0.85771971  0.62869838    -0.11100
C1432       C  0.02068894  0.86774013  0.64539196     0.21500
C1433       C  0.00947363  0.88105325  0.65950889    -0.20500
C1434       C  0.98751080  0.88446667  0.65701194    -0.11300
C1435       C  0.04399683  0.86443487  0.64889541    -0.15500
C1436       C  0.05780557  0.85968363  0.63309951    -0.29300
C1437       C  0.95251865  0.87668258  0.63785255    -0.03600
C1438       C  0.93941082  0.88195121  0.65408888    -0.40100
H1439       H  0.97900760  0.85292000  0.61344618     0.12700
H1440       H  0.01738780  0.84696569  0.61777579     0.12300
H1441       H  0.01780382  0.88905148  0.67242463     0.11700
H1442       H  0.97966737  0.89529984  0.66794628     0.12000
H1443       H  0.05019433  0.86728055  0.66488535     0.14700
H1444       H  0.05214907  0.85819702  0.61675839     0.13500
H1445       H  0.94557824  0.87253783  0.62246828     0.11200
H1446       H  0.94589942  0.88472575  0.66992630     0.13200
C1447       C  0.12277364  0.00374953  0.63029858     0.19200
C1448       C  0.12809520  0.99205120  0.64870789    -0.18800
C1449       C  0.12934468  0.96972548  0.64819521    -0.11100
C1450       C  0.12489622  0.95842555  0.62922781     0.21500
C1451       C  0.11964052  0.97013804  0.61077565    -0.20500
C1452       C  0.11847120  0.99251164  0.61127424    -0.11300
C1453       C  0.12569004  0.93458217  0.62796338    -0.15500
C1454       C  0.12467266  0.92168071  0.64520750    -0.29300
C1455       C  0.12146742  0.02750247  0.63189287    -0.03600
C1456       C  0.12261914  0.04088943  0.61502815    -0.40100
H1457       H  0.13153652  0.00025456  0.66356662     0.12700
H1458       H  0.13409156  0.96156275  0.66266892     0.12300
H1459       H  0.11613115  0.96191703  0.59594452     0.11700
H1460       H  0.11380516  0.00079867  0.59682822     0.12000
H1461       H  0.12624644  0.92737221  0.61216994     0.14700
H1462       H  0.12306448  0.92841811  0.66107801     0.13500
H1463       H  0.12021315  0.03428849  0.64783332     0.11200
H1464       H  0.12474905  0.03466229  0.59900212     0.13200
C1465       C  0.61209523  0.88517687  0.22979996     0.19200
C1466       C  0.59565450  0.89357800  0.24254570    -0.18800
C1467       C  0.59495378  0.88924195  0.26452280    -0.11100
C1468       C  0.61052877  0.87606623  0.27406508     0.21500
C1469       C  0.62664926  0.86728986  0.26121037    -0.20500
C1470       C  0.62754574  0.87188876  0.23936206    -0.11300
C1471       C  0.61013597  0.87060855  0.29718497    -0.15500
C1472       C  0.60303097  0.88415628  0.31227267    -0.29300
C1473       C  0.61214975  0.88934348  0.20639709    -0.03600
C1474       C  0.63035990  0.89040175  0.19499538    -0.40100
H1475       H  0.58336389  0.90353876  0.23548037     0.12700
H1476       H  0.58196479  0.89580213  0.27389024     0.12300
H1477       H  0.63865437  0.85688290  0.26812639     0.11700
H1478       H  0.64003126  0.86454119  0.22989833     0.12000
H1479       H  0.61732601  0.85555367  0.30206764     0.14700
H1480       H  0.59733664  0.89992669  0.30776234     0.13500
H1481       H  0.59687552  0.89159784  0.19841541     0.11200
H1482       H  0.64567928  0.88952321  0.20313999     0.13200
C1483       C  0.62358977  0.86569348  0.77603714     0.19200
C1484       C  0.61159497  0.85256276  0.76235089    -0.18800
C1485       C  0.61342085  0.85457944  0.74011954    -0.11100
C1486       C  0.62696944  0.87015032  0.73112542     0.21500
C1487       C  0.63877068  0.88345095  0.74482548    -0.20500
C1488       C  0.63730728  0.88110999  0.76705258    -0.11300
C1489       C  0.62796317  0.87380235  0.70763548    -0.15500
C1490       C  0.62604895  0.85791621  0.69324434    -0.29300
C1491       C  0.62028095  0.86415322  0.79952434    -0.03600
C1492       C  0.63604742  0.86748341  0.81380630    -0.40100
H1493       H  0.60068033  0.84080035  0.76889600     0.12700
H1494       H  0.60365885  0.84445453  0.73002137     0.12300
H1495       H  0.64907143  0.89576184  0.73829660     0.11700
H1496       H  0.64632968  0.89187551  0.77717897     0.12000
H1497       H  0.63088275  0.89000738  0.70205963     0.14700
H1498       H  0.62469687  0.84147824  0.69869242     0.13500
H1499       H  0.60443551  0.85979770  0.80519213     0.11200
H1500       H  0.65227285  0.87026820  0.80826343     0.13200
C1501       C  0.77210690  0.87395286  0.63188511     0.19200
C1502       C  0.75932327  0.88504733  0.61711663    -0.18800
C1503       C  0.73709771  0.88212224  0.61678063    -0.11100
C1504       C  0.72728426  0.86764968  0.63094683     0.21500
C1505       C  0.74012392  0.85611933  0.64529921    -0.20500
C1506       C  0.76226927  0.85935639  0.64593330    -0.11300
C1507       C  0.70386095  0.86359520  0.63053563    -0.15500
C1508       C  0.68937248  0.87907344  0.62678439    -0.29300
C1509       C  0.79570085  0.87716610  0.63169278    -0.03600
C1510       C  0.80773973  0.87569859  0.64947956    -0.40100
H1511       H  0.76654879  0.89610683  0.60590540     0.12700
H1512       H  0.72767518  0.89082563  0.60513485     0.12300
H1513       H  0.73296470  0.84465623  0.65614786     0.11700
H1514       H  0.77169815  0.85003547  0.65707962     0.12000
H1515       H  0.69833869  0.84764847  0.63471790     0.14700
H1516       H  0.69466375  0.89543956  0.62434262     0.13500
H1517       H  0.80323857  0.88149032  0.61664834     0.11200
H1518       H  0.80009923  0.87284367  0.66480734     0.13200
C1519       C  0.61873109  0.86540949  0.52465634     0.19200
C1520       C  0.61289289  0.84803707  0.51167689    -0.18800
C1521       C  0.61070832  0.85045891  0.48951162    -0.11100
C1522       C  0.61457695  0.87037843  0.47972001     0.21500
C1523       C  0.62047834  0.88772736  0.49269689    -0.20500
C1524       C  0.62266618  0.88530493  0.51484135    -0.11300
C1525       C  0.61215266  0.87401894  0.45625802    -0.15500
C1526       C  0.61174190  0.85835400  0.44144984    -0.29300
C1527       C  0.62095497  0.86195929  0.54818192    -0.03600
C1528       C  0.62040173  0.87783342  0.56274137    -0.40100
H1529       H  0.60976305  0.83252831  0.51875930     0.12700
H1530       H  0.60564330  0.83675360  0.48029110     0.12300
H1531       H  0.62360068  0.90324998  0.48563512     0.11700
H1532       H  0.62777626  0.89900915  0.52404497     0.12000
H1533       H  0.61126309  0.89053143  0.45088559     0.14700
H1534       H  0.61356304  0.84175852  0.44611996     0.13500
H1535       H  0.62235394  0.84555993  0.55378215     0.11200
H1536       H  0.61790317  0.89423628  0.55769755     0.13200
C1537       C  0.27098028  0.85255559  0.64106449     0.19200
C1538       C  0.25834705  0.84042241  0.65512541    -0.18800
C1539       C  0.23595440  0.84098339  0.65369910    -0.11100
C1540       C  0.22584432  0.85342244  0.63786408     0.21500
C1541       C  0.23854303  0.86491106  0.62337415    -0.20500
C1542       C  0.26082307  0.86461651  0.62500582    -0.11300
C1543       C  0.20221728  0.85425199  0.63532321    -0.15500
C1544       C  0.18831581  0.85196192  0.65160394    -0.29300
C1545       C  0.29470409  0.85212937  0.64295201    -0.03600
C1546       C  0.30661424  0.86955705  0.63877383    -0.40100
H1547       H  0.26581657  0.83071996  0.66738741     0.12700
H1548       H  0.22665240  0.83140040  0.66472415     0.12300
H1549       H  0.23117475  0.87431075  0.61081273     0.11700
H1550       H  0.27009144  0.87358829  0.61344552     0.12000
H1551       H  0.19607644  0.85804128  0.61950840     0.14700
H1552       H  0.19414272  0.84940409  0.66775489     0.13500
H1553       H  0.30239006  0.83752570  0.64839056     0.11200
H1554       H  0.29870636  0.88451823  0.63483210     0.13200
C1555       C  0.38383699  0.89311161  0.78285261     0.19200
C1556       C  0.39839102  0.88286540  0.76923172    -0.18800
C1557       C  0.39547118  0.88328582  0.74707023    -0.11100
C1558       C  0.37804234  0.89425614  0.73798961     0.21500
C1559       C  0.36402775  0.90537463  0.75149763    -0.20500
C1560       C  0.36677293  0.90470744  0.77373497    -0.11300
C1561       C  0.37439392  0.89427276  0.71448682    -0.15500
C1562       C  0.37794811  0.87666945  0.70268933    -0.29300
C1563       C  0.38716072  0.89157650  0.80638201    -0.03600
C1564       C  0.37102571  0.89274481  0.82055046    -0.40100
H1565       H  0.41187172  0.87417333  0.77578389     0.12700
H1566       H  0.40695209  0.87511132  0.73702309     0.12300
H1567       H  0.35070167  0.91423179  0.74485178     0.11700
H1568       H  0.35564837  0.91346117  0.78367418     0.12000
H1569       H  0.36780188  0.90850604  0.70700492     0.14700
H1570       H  0.38293870  0.86202785  0.71061451     0.13500
H1571       H  0.40324005  0.88833385  0.81213434     0.11200
H1572       H  0.35473822  0.89491516  0.81495778     0.13200
C1573       C  0.52090409  0.86809591  0.63267903     0.19200
C1574       C  0.50780670  0.88509345  0.63923310    -0.18800
C1575       C  0.48556813  0.88288808  0.63992690    -0.11100
C1576       C  0.47571558  0.86358807  0.63379839     0.21500
C1577       C  0.48876636  0.84647338  0.62743989    -0.20500
C1578       C  0.51107872  0.84867520  0.62673972    -0.11300
C1579       C  0.45202642  0.86063614  0.63441857    -0.15500
C1580       C  0.43817340  0.87709891  0.63348898    -0.29300
C1581       C  0.54453185  0.87167187  0.63211082    -0.03600
C1582       C  0.55923468  0.85621205  0.62912728    -0.40100
H1583       H  0.51483082  0.90018626  0.64402961     0.12700
H1584       H  0.47628466  0.89628079  0.64567781     0.12300
H1585       H  0.48164841  0.83138651  0.62275667     0.11700
H1586       H  0.52034037  0.83516471  0.62129743     0.12000
H1587       H  0.44582204  0.84441870  0.63520997     0.14700
H1588       H  0.44407348  0.89329393  0.63156435     0.13500
H1589       H  0.55011993  0.88794452  0.63460199     0.11200
H1590       H  0.55441727  0.83970608  0.62705863     0.13200
C1591       C  0.35663987  0.88178087  0.23781117     0.19200
C1592       C  0.37095333  0.86982646  0.25034529    -0.18800
C1593       C  0.36938499  0.86983497  0.27271202    -0.11100
C1594       C  0.35362317  0.88213430  0.28303548     0.21500
C1595       C  0.33969154  0.89452058  0.27050879    -0.20500
C1596       C  0.34106633  0.89428128  0.24817484    -0.11300
C1597       C  0.35205835  0.88351254  0.30675998    -0.15500
C1598       C  0.35811391  0.86774377  0.32018087    -0.29300
C1599       C  0.35872155  0.88145523  0.21406596    -0.03600
C1600       C  0.34185955  0.88404726  0.20090273    -0.40100
H1601       H  0.38331743  0.86035094  0.24279220     0.12700
H1602       H  0.38085169  0.86063204  0.28185157     0.12300
H1603       H  0.32767387  0.90444574  0.27804958     0.11700
H1604       H  0.33021168  0.90427559  0.23911195     0.12000
H1605       H  0.34509104  0.89797068  0.31340327     0.14700
H1606       H  0.36389204  0.85266453  0.31384533     0.13500
H1607       H  0.37437114  0.87815513  0.20728064     0.11200
H1608       H  0.32596202  0.88597573  0.20759698     0.13200
C1609       C  0.50419349  0.87607023  0.38212394     0.19200
C1610       C  0.49173234  0.89472264  0.38338081    -0.18800
C1611       C  0.46941139  0.89357693  0.38442455    -0.11100
C1612       C  0.45901772  0.87361368  0.38417792     0.21500
C1613       C  0.47147441  0.85499284  0.38293759    -0.20500
C1614       C  0.49374284  0.85612740  0.38194570    -0.11300
C1615       C  0.43541137  0.87109857  0.38553692    -0.15500
C1616       C  0.42107407  0.88714219  0.38433186    -0.29300
C1617       C  0.52790138  0.87830595  0.38154081    -0.03600
C1618       C  0.54166203  0.86201672  0.37846830    -0.40100
H1619       H  0.49930833  0.91029775  0.38367978     0.12700
H1620       H  0.46058448  0.90837153  0.38567264     0.12300
H1621       H  0.46393941  0.83939412  0.38282618     0.11700
H1622       H  0.50245212  0.84124182  0.38132938     0.12000
H1623       H  0.42948089  0.85484528  0.38722548     0.14700
H1624       H  0.42609566  0.90358124  0.38221629     0.13500
H1625       H  0.53435068  0.89431129  0.38361198     0.11200
H1626       H  0.53604181  0.84586922  0.37582793     0.13200
C1627       C  0.36487652  0.87678967  0.53414438     0.19200
C1628       C  0.35257089  0.89064181  0.52148029    -0.18800
C1629       C  0.35136080  0.88786010  0.49929962    -0.11100
C1630       C  0.36280961  0.87129999  0.48918724     0.21500
C1631       C  0.37517090  0.85749541  0.50188178    -0.20500
C1632       C  0.37631732  0.86023772  0.52406192    -0.11300
C1633       C  0.36202007  0.86765175  0.46561870    -0.15500
C1634       C  0.35649964  0.88287083  0.45140081    -0.29300
C1635       C  0.36578563  0.88030228  0.55768685    -0.03600
C1636       C  0.36946808  0.86439557  0.57171418    -0.40100
H1637       H  0.34359061  0.90349729  0.52882519     0.12700
H1638       H  0.34114973  0.89852125  0.49029855     0.12300
H1639       H  0.38419087  0.84464871  0.49457150     0.11700
H1640       H  0.38648162  0.84958743  0.53315792     0.12000
H1641       H  0.36699941  0.85209169  0.45970791     0.14700
H1642       H  0.35263448  0.89887011  0.45682788     0.13500
H1643       H  0.36247711  0.89627128  0.56367337     0.11200
H1644       H  0.37142791  0.84813014  0.56600577     0.13200
C1645       C  0.88151863  0.38461701  0.77133906     0.19200
C1646       C  0.87267092  0.36964695  0.75718516    -0.18800
C1647       C  0.87548806  0.37179666  0.73512417    -0.11100
C1648       C  0.88755080  0.38884500  0.72674182     0.21500
C1649       C  0.89659551  0.40373277  0.74088598    -0.20500
C1650       C  0.89345616  0.40178790  0.76298329    -0.11300
C1651       C  0.89206676  0.39049036  0.70348229    -0.15500
C1652       C  0.87789989  0.38421231  0.68856501    -0.29300
C1653       C  0.87935019  0.38089180  0.79468987    -0.03600
C1654       C  0.87908780  0.39668888  0.80927808    -0.40100
H1655       H  0.86369987  0.35611367  0.76324622     0.12700
H1656       H  0.86883387  0.35966857  0.72471765     0.12300
H1657       H  0.90621609  0.41680737  0.73482007     0.11700
H1658       H  0.90100803  0.41328176  0.77349211     0.12000
H1659       H  0.90733026  0.39718359  0.69854432     0.14700
H1660       H  0.86204876  0.37898558  0.69338176     0.13500
H1661       H  0.87739674  0.36445368  0.80000653     0.11200
H1662       H  0.87956129  0.41328110  0.80417629     0.13200
C1663       C  0.88286384  0.23360345  0.63850882     0.19200
C1664       C  0.89616272  0.24726088  0.65037233    -0.18800
C1665       C  0.89617417  0.26934184  0.64660298    -0.11100
C1666       C  0.88263238  0.27827948  0.63098583     0.21500
C1667       C  0.86919430  0.26463028  0.61926982    -0.20500
C1668       C  0.86937322  0.24253275  0.62285869    -0.11300
C1669       C  0.88110060  0.30177226  0.62739373    -0.15500
C1670       C  0.89714981  0.31557328  0.63146366    -0.29300
C1671       C  0.88231125  0.21042678  0.64390824    -0.03600
C1672       C  0.87693649  0.19507562  0.62980282    -0.40100
H1673       H  0.90645075  0.24083070  0.66274707     0.12700
H1674       H  0.90628833  0.27937658  0.65642299     0.12300
H1675       H  0.85837847  0.27112100  0.60738834     0.11700
H1676       H  0.85841243  0.23261632  0.61385348     0.12000
H1677       H  0.86627292  0.30785988  0.62066378     0.14700
H1678       H  0.91250333  0.30970057  0.63703159     0.13500
H1679       H  0.88683760  0.20583105  0.66004829     0.11200
H1680       H  0.87378982  0.19920244  0.61323739     0.13200
C1681       C  0.87698522  0.36600659  0.22646164     0.19200
C1682       C  0.89153009  0.35313313  0.23774468    -0.18800
C1683       C  0.89134530  0.35264769  0.26014911    -0.11100
C1684       C  0.87630499  0.36479463  0.27164186     0.21500
C1685       C  0.86135094  0.37710283  0.26032075    -0.20500
C1686       C  0.86174224  0.37783983  0.23800174    -0.11300
C1687       C  0.87515762  0.36450263  0.29534490    -0.15500
C1688       C  0.89230657  0.36176497  0.30808223    -0.29300
C1689       C  0.87751525  0.36635684  0.20269478    -0.03600
C1690       C  0.87214619  0.38386029  0.19137591    -0.40100
H1691       H  0.90317883  0.34359606  0.22920169     0.12700
H1692       H  0.90268933  0.34248225  0.26838845     0.12300
H1693       H  0.84939412  0.38631858  0.26879889     0.11700
H1694       H  0.84982037  0.38737027  0.22982077     0.12000
H1695       H  0.85973767  0.36796814  0.30257309     0.14700
H1696       H  0.90808824  0.35965994  0.30117077     0.13500
H1697       H  0.88313279  0.35218378  0.19438701     0.11200
H1698       H  0.86802791  0.39853292  0.19967649     0.13200
C1699       C  0.89532353  0.36809161  0.47664319     0.19200
C1700       C  0.91229571  0.37581925  0.48915170    -0.18800
C1701       C  0.91025623  0.37758712  0.51137658    -0.11100
C1702       C  0.89118466  0.37135235  0.52162191     0.21500
C1703       C  0.87435178  0.36334254  0.50911544    -0.20500
C1704       C  0.87639917  0.36155592  0.48694891    -0.11300
C1705       C  0.88777506  0.37338899  0.54509047    -0.15500
C1706       C  0.90352435  0.37598612  0.55957874    -0.29300
C1707       C  0.89799348  0.36689847  0.45301197    -0.03600
C1708       C  0.88138490  0.36675878  0.43930515    -0.40100
H1709       H  0.92707396  0.38088081  0.48164978     0.12700
H1710       H  0.92350442  0.38423703  0.52027108     0.12300
H1711       H  0.85952768  0.35831136  0.51655466     0.11700
H1712       H  0.86317781  0.35479922  0.47808481     0.12000
H1713       H  0.87138145  0.37218042  0.55075135     0.14700
H1714       H  0.92013079  0.37654018  0.55464987     0.13500
H1715       H  0.91417690  0.36693704  0.44667384     0.11200
H1716       H  0.86512334  0.36773720  0.44524330     0.13200
C1717       C  0.87892859  0.77883853  0.63483988     0.19200
C1718       C  0.86845790  0.76672655  0.61909881    -0.18800
C1719       C  0.87230696  0.74476986  0.61710152    -0.11100
C1720       C  0.88699843  0.73446108  0.63068147     0.21500
C1721       C  0.89761480  0.74660497  0.64631350    -0.20500
C1722       C  0.89353859  0.76852608  0.64850622    -0.11300
C1723       C  0.89232812  0.71137125  0.62833410    -0.15500
C1724       C  0.87840644  0.69672883  0.62084847    -0.29300
C1725       C  0.87553731  0.80238611  0.63533317    -0.03600
C1726       C  0.87800588  0.81458575  0.65292898    -0.40100
H1727       H  0.85739193  0.77434125  0.60815051     0.12700
H1728       H  0.86425255  0.73608629  0.60448485     0.12300
H1729       H  0.90919189  0.73911153  0.65680647     0.11700
H1730       H  0.90237893  0.77744940  0.66041133     0.12000
H1731       H  0.90788254  0.70606767  0.63400841     0.14700
H1732       H  0.86219886  0.70143537  0.61678345     0.13500
H1733       H  0.87052644  0.80995753  0.62050573     0.11200
H1734       H  0.88165551  0.80723674  0.66822682     0.13200
C1735       C  0.87829004  0.62818640  0.76622360     0.19200
C1736       C  0.88989806  0.64346954  0.75457963    -0.18800
C1737       C  0.88955002  0.64342497  0.73220191    -0.11100
C1738       C  0.87730424  0.62821102  0.72100942     0.21500
C1739       C  0.86501842  0.61348645  0.73266133    -0.20500
C1740       C  0.86557157  0.61336023  0.75502188    -0.11300
C1741       C  0.87658628  0.62763593  0.69725998    -0.15500
C1742       C  0.89333507  0.63331073  0.68500069    -0.29300
C1743       C  0.87933440  0.62843986  0.78998215    -0.03600
C1744       C  0.87695129  0.61065834  0.80187700    -0.40100
H1745       H  0.89947286  0.65531385  0.76282416     0.12700
H1746       H  0.89863372  0.65549574  0.72373127     0.12300
H1747       H  0.85515111  0.60187786  0.72442363     0.11700
H1748       H  0.85577484  0.60184246  0.76346141     0.12000
H1749       H  0.86224704  0.62135953  0.68970379     0.14700
H1750       H  0.90822366  0.63826020  0.69244247     0.13500
H1751       H  0.88295942  0.64350881  0.79782259     0.11200
H1752       H  0.87454437  0.59532876  0.79412122     0.13200
C1753       C  0.89350918  0.52920888  0.61788938     0.19200
C1754       C  0.87583699  0.51607856  0.62228286    -0.18800
C1755       C  0.87786056  0.49384096  0.62276692    -0.11100
C1756       C  0.89766708  0.48403483  0.61851812     0.21500
C1757       C  0.91538940  0.49714151  0.61403896    -0.20500
C1758       C  0.91336923  0.51948065  0.61361406    -0.11300
C1759       C  0.90058236  0.46036314  0.61951190    -0.15500
C1760       C  0.88429852  0.44629253  0.61795019    -0.29300
C1761       C  0.89013353  0.55280198  0.61771303    -0.03600
C1762       C  0.90581847  0.56757448  0.61866977    -0.40100
H1763       H  0.86036716  0.52308155  0.62569060     0.12700
H1764       H  0.86390175  0.48454960  0.62697971     0.12300
H1765       H  0.93085196  0.49006009  0.61076699     0.11700
H1766       H  0.92733293  0.52891573  0.60972183     0.12000
H1767       H  0.91676401  0.45431804  0.62142957     0.14700
H1768       H  0.86816357  0.45186515  0.61494940     0.13500
H1769       H  0.87363939  0.55828227  0.61741021     0.11200
H1770       H  0.92246458  0.56280786  0.61952494     0.13200
C1771       C  0.86769726  0.62720869  0.22141411     0.19200
C1772       C  0.88072430  0.63796623  0.23617387    -0.18800
C1773       C  0.87845863  0.63431840  0.25815819    -0.11100
C1774       C  0.86276213  0.62011782  0.26586818     0.21500
C1775       C  0.84944160  0.60969084  0.25111768    -0.20500
C1776       C  0.85200367  0.61300605  0.22910772    -0.11300
C1777       C  0.85913806  0.61694619  0.28918499    -0.15500
C1778       C  0.87511104  0.61762718  0.30360413    -0.29300
C1779       C  0.87014258  0.63174024  0.19817733    -0.03600
C1780       C  0.86754236  0.61654382  0.18319573    -0.40100
H1781       H  0.89272470  0.64918313  0.23066366     0.12700
H1782       H  0.88859090  0.64310619  0.26910772     0.12300
H1783       H  0.83702772  0.59894341  0.25665087     0.11700
H1784       H  0.84132364  0.60488058  0.21815887     0.12000
H1785       H  0.84295210  0.61359196  0.29454861     0.14700
H1786       H  0.89149888  0.61950963  0.29816809     0.13500
H1787       H  0.87508746  0.64769559  0.19337342     0.11200
H1788       H  0.86423783  0.60020584  0.18809562     0.13200
C1789       C  0.87460883  0.51237893  0.37124631     0.19200
C1790       C  0.88972987  0.49999888  0.38230636    -0.18800
C1791       C  0.88871402  0.47764047  0.38200814    -0.11100
C1792       C  0.87266418  0.46700842  0.37030689     0.21500
C1793       C  0.85741270  0.47936364  0.35936587    -0.20500
C1794       C  0.85841857  0.50177999  0.35967866    -0.11300
C1795       C  0.87117345  0.44316749  0.36966463    -0.15500
C1796       C  0.88834688  0.43039363  0.37217705    -0.29300
C1797       C  0.87674646  0.53616650  0.37168972    -0.03600
C1798       C  0.86043719  0.54977177  0.36799712    -0.40100
H1799       H  0.90231583  0.50767686  0.39140588     0.12700
H1800       H  0.90036558  0.46879783  0.39125830     0.12300
H1801       H  0.84485799  0.47163487  0.35026843     0.11700
H1802       H  0.84674113  0.51065626  0.35049955     0.12000
H1803       H  0.85566777  0.43599047  0.36647094     0.14700
H1804       H  0.90408336  0.43746224  0.37408545     0.13500
H1805       H  0.89227680  0.54272197  0.37594238     0.11200
H1806       H  0.84452670  0.54360773  0.36485735     0.13200
C1807       C  0.87640194  0.62427365  0.51691950     0.19200
C1808       C  0.85798075  0.61702093  0.50618548    -0.18800
C1809       C  0.85755557  0.61525517  0.48381766    -0.11100
C1810       C  0.87564788  0.62075750  0.47160101     0.21500
C1811       C  0.89400882  0.62799052  0.48230006    -0.20500
C1812       C  0.89441913  0.62984122  0.50456715    -0.11300
C1813       C  0.87659306  0.61868000  0.44785523    -0.15500
C1814       C  0.85947821  0.61704426  0.43480089    -0.29300
C1815       C  0.87603984  0.62567030  0.54083571    -0.03600
C1816       C  0.89298945  0.63120668  0.55303882    -0.40100
H1817       H  0.84385976  0.61253521  0.51516246     0.12700
H1818       H  0.84319715  0.60921198  0.47630878     0.12300
H1819       H  0.90819621  0.63232241  0.47334863     0.11700
H1820       H  0.90899072  0.63567601  0.51173902     0.12000
H1821       H  0.89240182  0.61933100  0.44066004     0.14700
H1822       H  0.84338553  0.61731438  0.44124931     0.13500
H1823       H  0.86112464  0.62164921  0.54879685     0.11200
H1824       H  0.90825717  0.63498987  0.54585484     0.13200
C1825       C  0.36181389  0.13600597  0.72748283     0.19200
C1826       C  0.34749031  0.14742040  0.74044723    -0.18800
C1827       C  0.34855716  0.14583914  0.76276411    -0.11100
C1828       C  0.36423784  0.13298766  0.77254750     0.21500
C1829       C  0.37861466  0.12168693  0.75957109    -0.20500
C1830       C  0.37739849  0.12307626  0.73730538    -0.11300
C1831       C  0.36732181  0.13234995  0.79608739    -0.15500
C1832       C  0.35175097  0.13622431  0.81044485    -0.29300
C1833       C  0.36100596  0.13888442  0.70389198    -0.03600
C1834       C  0.36750428  0.12372715  0.69008660    -0.40100
H1835       H  0.33555151  0.15773167  0.73327674     0.12700
H1836       H  0.33760468  0.15527967  0.77225042     0.12300
H1837       H  0.39105447  0.11195717  0.76671011     0.11700
H1838       H  0.38916447  0.11458302  0.72789639     0.12000
H1839       H  0.38321634  0.12825965  0.80183335     0.14700
H1840       H  0.33544189  0.13903728  0.80520798     0.13500
H1841       H  0.35454938  0.15380168  0.69772761     0.11200
H1842       H  0.37268283  0.10825046  0.69600820     0.13200
C1843       C  0.26668077  0.12568706  0.62012458     0.19200
C1844       C  0.25157220  0.13547139  0.63349408    -0.18800
C1845       C  0.22979532  0.13066240  0.63154977    -0.11100
C1846       C  0.22263168  0.11622795  0.61586144     0.21500
C1847       C  0.23766323  0.10693874  0.60204532    -0.20500
C1848       C  0.25950579  0.11143314  0.60426200    -0.11300
C1849       C  0.19950460  0.11161472  0.61281769    -0.15500
C1850       C  0.18552648  0.11098495  0.62917422    -0.29300
C1851       C  0.28966868  0.13126807  0.62260849    -0.03600
C1852       C  0.30554889  0.11723247  0.61890196    -0.40100
H1853       H  0.25666401  0.14677125  0.64558640     0.12700
H1854       H  0.21854962  0.13865214  0.64199474     0.12300
H1855       H  0.23248736  0.09609843  0.58957354     0.11700
H1856       H  0.27067796  0.10411466  0.59326120     0.12000
H1857       H  0.19392089  0.10835249  0.59669230     0.14700
H1858       H  0.19124153  0.11288055  0.64546204     0.13500
H1859       H  0.29356817  0.14708061  0.62865863     0.11200
H1860       H  0.30173626  0.10094890  0.61423659     0.13200
C1861       C  0.38274694  0.12604820  0.22837369     0.19200
C1862       C  0.36948990  0.11262778  0.24052645    -0.18800
C1863       C  0.37100625  0.11221025  0.26281113    -0.11100
C1864       C  0.38574320  0.12542169  0.27352258     0.21500
C1865       C  0.39888513  0.13903074  0.26138964    -0.20500
C1866       C  0.39754650  0.13924952  0.23901344    -0.11300
C1867       C  0.38682435  0.12615097  0.29728624    -0.15500
C1868       C  0.38174306  0.10927034  0.30966906    -0.29300
C1869       C  0.37958066  0.12686481  0.20483938    -0.03600
C1870       C  0.39509770  0.13189195  0.19077273    -0.40100
H1871       H  0.35775372  0.10254378  0.23274021     0.12700
H1872       H  0.36010582  0.10201974  0.27159185     0.12300
H1873       H  0.41013566  0.14958971  0.26925736     0.11700
H1874       H  0.40760476  0.15022810  0.23016831     0.12000
H1875       H  0.39229283  0.14085456  0.30475112     0.14700
H1876       H  0.37771164  0.09407149  0.30234781     0.13500
H1877       H  0.36390586  0.12236087  0.19880619     0.11200
H1878       H  0.41127239  0.13493890  0.19629543     0.13200
C1879       C  0.38012059  0.12672658  0.47729719     0.19200
C1880       C  0.37060056  0.14351748  0.48869172    -0.18800
C1881       C  0.36958098  0.14298142  0.51103890    -0.11100
C1882       C  0.37846374  0.12571738  0.52249141     0.21500
C1883       C  0.38833765  0.10913866  0.51104889    -0.20500
C1884       C  0.38927093  0.10964679  0.48874023    -0.11300
C1885       C  0.37729562  0.12387247  0.54618547    -0.15500
C1886       C  0.37246769  0.14012118  0.55945137    -0.29300
C1887       C  0.38040982  0.12755429  0.45355182    -0.03600
C1888       C  0.38040615  0.10982773  0.44138835    -0.40100
H1889       H  0.36350570  0.15687724  0.48024164     0.12700
H1890       H  0.36143401  0.15591049  0.51908068     0.12300
H1891       H  0.39540786  0.09571075  0.51941457     0.11700
H1892       H  0.39736943  0.09673620  0.48055613     0.12000
H1893       H  0.38097658  0.10833136  0.55306288     0.14700
H1894       H  0.36942624  0.15603380  0.55330073     0.13500
H1895       H  0.37958697  0.14313749  0.44589977     0.11200
H1896       H  0.37988198  0.09416786  0.44886119     0.13200
C1897       C  0.76945466  0.13844891  0.63050076     0.19200
C1898       C  0.75708161  0.12727466  0.61547787    -0.18800
C1899       C  0.73480543  0.12939189  0.61511442    -0.11100
C1900       C  0.72433326  0.14292832  0.62971967     0.21500
C1901       C  0.73673591  0.15473567  0.64422465    -0.20500
C1902       C  0.75904552  0.15246764  0.64472442    -0.11300
C1903       C  0.70058389  0.14509902  0.62997951    -0.15500
C1904       C  0.68763358  0.12866277  0.62498356    -0.29300
C1905       C  0.79312759  0.13552332  0.63033038    -0.03600
C1906       C  0.80573942  0.13901290  0.64745420    -0.40100
H1907       H  0.76467366  0.11669561  0.60407206     0.12700
H1908       H  0.72585677  0.12059417  0.60319386     0.12300
H1909       H  0.72911086  0.16552991  0.65539917     0.11700
H1910       H  0.76803995  0.16195664  0.65604664     0.12000
H1911       H  0.69365850  0.16002505  0.63552664     0.14700
H1912       H  0.69459595  0.11326285  0.62102776     0.13500
H1913       H  0.80033497  0.12949807  0.61572228     0.11200
H1914       H  0.79875979  0.14404188  0.66250221     0.13200
C1915       C  0.63139530  0.11248096  0.77225007     0.19200
C1916       C  0.61501296  0.12311858  0.76119976    -0.18800
C1917       C  0.61368726  0.12205115  0.73890288    -0.11100
C1918       C  0.62862960  0.11006733  0.72710897     0.21500
C1919       C  0.64449388  0.09867327  0.73819474    -0.20500
C1920       C  0.64598888  0.09995833  0.76053024    -0.11300
C1921       C  0.62791511  0.10925601  0.70331179    -0.15500
C1922       C  0.62177766  0.12623674  0.69159660    -0.29300
C1923       C  0.63237319  0.11442359  0.79596568    -0.03600
C1924       C  0.65066827  0.11283071  0.80721980    -0.40100
H1925       H  0.60334174  0.13254449  0.76984207     0.12700
H1926       H  0.60081643  0.13047466  0.73094768     0.12300
H1927       H  0.65598367  0.08905940  0.72951794     0.11700
H1928       H  0.65839767  0.09093529  0.76855016     0.12000
H1929       H  0.63386105  0.09504585  0.69529604     0.14700
H1930       H  0.61760200  0.14104728  0.69962489     0.13500
H1931       H  0.61765442  0.11833739  0.80432553     0.11200
H1932       H  0.66569359  0.11009390  0.79898364     0.13200
C1933       C  0.47281434  0.13545630  0.62771610     0.19200
C1934       C  0.48620526  0.11824921  0.63297452    -0.18800
C1935       C  0.50842445  0.12061325  0.63326313    -0.11100
C1936       C  0.51803271  0.14025879  0.62778214     0.21500
C1937       C  0.50462961  0.15763282  0.62278708    -0.20500
C1938       C  0.48226211  0.15529263  0.62267306    -0.11300
C1939       C  0.54183036  0.14312537  0.62745811    -0.15500
C1940       C  0.55553782  0.12657149  0.62565241    -0.29300
C1941       C  0.44928746  0.13150341  0.62699097    -0.03600
C1942       C  0.43411282  0.14677264  0.62818963    -0.40100
H1943       H  0.47941595  0.10282841  0.63705944     0.12700
H1944       H  0.51786387  0.10697035  0.63809007     0.12300
H1945       H  0.51150092  0.17299279  0.61863499     0.11700
H1946       H  0.47254791  0.16888349  0.61817771     0.12000
H1947       H  0.54819747  0.15928077  0.62823772     0.14700
H1948       H  0.54938750  0.11047292  0.62378215     0.13500
H1949       H  0.44421820  0.11490377  0.62599913     0.11200
H1950       H  0.43856087  0.16344191  0.62998755     0.13200
C1951       C  0.63388294  0.14222898  0.22603190     0.19200
C1952       C  0.62111240  0.15435693  0.23989987    -0.18800
C1953       C  0.62237754  0.15142383  0.26206127    -0.11100
C1954       C  0.63618959  0.13592923  0.27079971     0.21500
C1955       C  0.64878928  0.12363113  0.25687388    -0.20500
C1956       C  0.64783558  0.12687724  0.23472679    -0.11300
C1957       C  0.63677711  0.13128366  0.29415442    -0.15500
C1958       C  0.63256101  0.14606115  0.30922990    -0.29300
C1959       C  0.63112574  0.14468211  0.20256714    -0.03600
C1960       C  0.64746443  0.14317432  0.18864703    -0.40100
H1961       H  0.61001128  0.16604222  0.23353866     0.12700
H1962       H  0.61196660  0.16077838  0.27222112     0.12300
H1963       H  0.65931474  0.11138371  0.26315617     0.11700
H1964       H  0.65746218  0.11687631  0.22438728     0.12000
H1965       H  0.64129696  0.11524196  0.29908914     0.14700
H1966       H  0.62945337  0.16250174  0.30459819     0.13500
H1967       H  0.61518423  0.14827543  0.19663549     0.11200
H1968       H  0.66368027  0.14115973  0.19455895     0.13200
C1969       C  0.48383244  0.11784622  0.37252570     0.19200
C1970       C  0.49571477  0.13426131  0.36285473    -0.18800
C1971       C  0.51804225  0.13336381  0.36216693    -0.11100
C1972       C  0.52909558  0.11608326  0.37143004     0.21500
C1973       C  0.51725583  0.09946592  0.38081204    -0.20500
C1974       C  0.49486650  0.10037199  0.38153137    -0.11300
C1975       C  0.55288345  0.11500269  0.37144270    -0.15500
C1976       C  0.56518359  0.13266463  0.37196345    -0.29300
C1977       C  0.46010992  0.11998168  0.37335435    -0.03600
C1978       C  0.44658074  0.10342956  0.37605254    -0.40100
H1979       H  0.48766695  0.14783956  0.35569160     0.12700
H1980       H  0.52655955  0.14614641  0.35418214     0.12300
H1981       H  0.52538314  0.08596416  0.38802836     0.11700
H1982       H  0.48639630  0.08760467  0.38956086     0.12000
H1983       H  0.56040922  0.09935420  0.37218378     0.14700
H1984       H  0.55774296  0.14832044  0.37282752     0.13500
H1985       H  0.45347077  0.13584381  0.37078107     0.11200
H1986       H  0.45268118  0.08725833  0.37747153     0.13200
C1987       C  0.62599308  0.12378273  0.52223358     0.19200
C1988       C  0.62134107  0.10687091  0.50821935    -0.18800
C1989       C  0.62224958  0.10978171  0.48599556    -0.11100
C1990       C  0.62812913  0.12972849  0.47724738     0.21500
C1991       C  0.63306699  0.14650801  0.49129190    -0.20500
C1992       C  0.63219457  0.14359274  0.51344224    -0.11300
C1993       C  0.62886538  0.13408303  0.45377160    -0.15500
C1994       C  0.62896701  0.11887589  0.43852434    -0.29300
C1995       C  0.62464850  0.12012585  0.54581770    -0.03600
C1996       C  0.62225325  0.13613444  0.56001191    -0.40100
H1997       H  0.61665743  0.09140623  0.51449379     0.12700
H1998       H  0.61793843  0.09645332  0.47589375     0.12300
H1999       H  0.63777766  0.16199738  0.48508931     0.11700
H2000       H  0.63672726  0.15688588  0.52350423     0.12000
H2001       H  0.62982334  0.15072797  0.44882983     0.14700
H2002       H  0.62877812  0.10208841  0.44283939     0.13500
H2003       H  0.62526004  0.10374899  0.55162068     0.11200
H2004       H  0.62071222  0.15248655  0.55444109     0.13200
C2005       C  0.12295162  0.61787886  0.76499465     0.19200
C2006       C  0.11034873  0.60306598  0.75374825    -0.18800
C2007       C  0.11096245  0.60221276  0.73134801    -0.11100
C2008       C  0.12459775  0.61589792  0.71979393     0.21500
C2009       C  0.13748077  0.63040428  0.73108220    -0.20500
C2010       C  0.13656853  0.63153483  0.75339984    -0.11300
C2011       C  0.12690316  0.61457659  0.69616643    -0.15500
C2012       C  0.11097237  0.60890856  0.68279567    -0.29300
C2013       C  0.12241146  0.61810693  0.78879390    -0.03600
C2014       C  0.12522167  0.63610108  0.80028569    -0.40100
H2015       H  0.09997508  0.59215466  0.76233042     0.12700
H2016       H  0.10125301  0.59043692  0.72317593     0.12300
H2017       H  0.14835856  0.64088308  0.72258000     0.11700
H2018       H  0.14697782  0.64270355  0.76156664     0.12000
H2019       H  0.14220721  0.61935621  0.68944628     0.14700
H2020       H  0.09510556  0.60559837  0.68902594     0.13500
H2021       H  0.11894257  0.60319242  0.79702659     0.11200
H2022       H  0.12716871  0.65130708  0.79211268     0.13200
C2023       C  0.12680902  0.75413542  0.62521077     0.19200
C2024       C  0.12153191  0.74241852  0.60682261    -0.18800
C2025       C  0.12339758  0.72011832  0.60659184    -0.11100
C2026       C  0.13093301  0.70907934  0.62469338     0.21500
C2027       C  0.13682320  0.72079886  0.64287093    -0.20500
C2028       C  0.13465280  0.74308155  0.64322559    -0.11300
C2029       C  0.13305426  0.68541469  0.62484582    -0.15500
C2030       C  0.11859701  0.67268718  0.61530409    -0.29300
C2031       C  0.12497914  0.77787037  0.62468390    -0.03600
C2032       C  0.12195384  0.78979664  0.64232283    -0.40100
H2033       H  0.11583574  0.75054427  0.59262141     0.12700
H2034       H  0.11926080  0.71155352  0.59212698     0.12300
H2035       H  0.14291815  0.71266309  0.65690202     0.11700
H2036       H  0.13959887  0.75158814  0.65745359     0.12000
H2037       H  0.14582246  0.67829866  0.63425485     0.14700
H2038       H  0.10472130  0.67975644  0.60759790     0.13500
H2039       H  0.12585806  0.78572934  0.60920785     0.11200
H2040       H  0.11995210  0.78209877  0.65774842     0.13200
C2041       C  0.11540285  0.60046646  0.21871036     0.19200
C2042       C  0.12840488  0.58895973  0.23292279    -0.18800
C2043       C  0.12635393  0.59176967  0.25501897    -0.11100
C2044       C  0.11098757  0.60596082  0.26331143     0.21500
C2045       C  0.09746856  0.61686036  0.24910947    -0.20500
C2046       C  0.09971987  0.61427994  0.22702707    -0.11300
C2047       C  0.10807047  0.60905352  0.28665453    -0.15500
C2048       C  0.12424378  0.60745036  0.30075403    -0.29300
C2049       C  0.11821615  0.59749535  0.19533247    -0.03600
C2050       C  0.11501604  0.61349174  0.18132179    -0.40100
H2051       H  0.14034299  0.57796282  0.22689828     0.12700
H2052       H  0.13653944  0.58253696  0.26554913     0.12300
H2053       H  0.08524804  0.62754928  0.25512367     0.11700
H2054       H  0.08895122  0.62285832  0.21651768     0.12000
H2055       H  0.09223017  0.61342525  0.29230492     0.14700
H2056       H  0.14038213  0.60434025  0.29516474     0.13500
H2057       H  0.12411879  0.58218232  0.18964791     0.11200
H2058       H  0.11068159  0.62927512  0.18709458     0.13200
C2059       C  0.12079679  0.61065148  0.46899774     0.19200
C2060       C  0.13724890  0.60201788  0.48165094    -0.18800
C2061       C  0.13542028  0.60125066  0.50395926    -0.11100
C2062       C  0.11707373  0.60934501  0.51418888     0.21500
C2063       C  0.10070394  0.61810221  0.50154165    -0.20500
C2064       C  0.10254508  0.61890398  0.47926036    -0.11300
C2065       C  0.11399313  0.60848583  0.53782105    -0.15500
C2066       C  0.13000305  0.60621955  0.55208199    -0.29300
C2067       C  0.12352477  0.61103615  0.44530598    -0.03600
C2068       C  0.10729992  0.61346669  0.43129705    -0.40100
H2069       H  0.15150298  0.59556901  0.47421679     0.12700
H2070       H  0.14822831  0.59392331  0.51297779     0.12300
H2071       H  0.08643110  0.62451968  0.50896214     0.11700
H2072       H  0.08972592  0.62626846  0.47029786     0.12000
H2073       H  0.09779845  0.61059377  0.54376869     0.14700
H2074       H  0.14646641  0.60520647  0.54672230     0.13500
H2075       H  0.13956266  0.60845475  0.43912367     0.11200
H2076       H  0.09097323  0.61505078  0.43690065     0.13200
C2077       C  0.12437531  0.20924658  0.61418143     0.19200
C2078       C  0.13731004  0.22117202  0.60024702    -0.18800
C2079       C  0.13798285  0.24347807  0.60153918    -0.11100
C2080       C  0.12556133  0.25441804  0.61676957     0.21500
C2081       C  0.11228085  0.24254232  0.63043046    -0.20500
C2082       C  0.11174580  0.22018110  0.62926389    -0.11300
C2083       C  0.12558060  0.27817346  0.61818296    -0.15500
C2084       C  0.14283325  0.29000136  0.61313169    -0.29300
C2085       C  0.12388037  0.18557981  0.61186907    -0.03600
C2086       C  0.11863536  0.17214698  0.62785625    -0.40100
H2087       H  0.14694600  0.21318754  0.58828265     0.12700
H2088       H  0.14787662  0.25210383  0.59025180     0.12300
H2089       H  0.10232593  0.25059861  0.64207607     0.11700
H2090       H  0.10106312  0.21161740  0.63984793     0.12000
H2091       H  0.11132996  0.28604482  0.62424096     0.14700
H2092       H  0.15760743  0.28214572  0.60852742     0.13500
H2093       H  0.12894406  0.17893660  0.59663891     0.11200
H2094       H  0.11485197  0.17834984  0.64359694     0.13200
C2095       C  0.13647021  0.36437994  0.76236680     0.19200
C2096       C  0.15257587  0.35259639  0.75205318    -0.18800
C2097       C  0.15287252  0.35079522  0.72968274    -0.11100
C2098       C  0.13678488  0.36049953  0.71726124     0.21500
C2099       C  0.12038128  0.37170919  0.72769282    -0.20500
C2100       C  0.12023871  0.37372260  0.74992460    -0.11300
C2101       C  0.13580279  0.35880023  0.69354932    -0.15500
C2102       C  0.15267869  0.35493693  0.68067236    -0.29300
C2103       C  0.13650547  0.36628630  0.78608968    -0.03600
C2104       C  0.12908484  0.38380202  0.79617068    -0.40100
H2105       H  0.16506614  0.34495417  0.76132125     0.12700
H2106       H  0.16544421  0.34151935  0.72226558     0.12300
H2107       H  0.10760182  0.37904710  0.71856964     0.11700
H2108       H  0.10717074  0.38229804  0.75734789     0.12000
H2109       H  0.12036031  0.36202572  0.68623801     0.14700
H2110       H  0.16854956  0.35270576  0.68732627     0.13500
H2111       H  0.14355597  0.35340406  0.79539163     0.11200
H2112       H  0.12357260  0.39739347  0.78686180     0.13200
C2113       C  0.13461159  0.45871101  0.61793014     0.19200
C2114       C  0.11680209  0.47065625  0.61136453    -0.18800
C2115       C  0.11717582  0.49301021  0.61174749    -0.11100
C2116       C  0.13534852  0.50412400  0.61915876     0.21500
C2117       C  0.15323999  0.49215436  0.62567403    -0.20500
C2118       C  0.15290566  0.46972295  0.62514870    -0.11300
C2119       C  0.13644691  0.52802899  0.61980450    -0.15500
C2120       C  0.11909051  0.54076778  0.61859111    -0.29300
C2121       C  0.13307305  0.43490620  0.61752438    -0.03600
C2122       C  0.15010114  0.42177057  0.61661023    -0.40100
H2123       H  0.10254046  0.46263496  0.60565835     0.12700
H2124       H  0.10322664  0.50132980  0.60586177     0.12300
H2125       H  0.16748914  0.50019209  0.63139133     0.11700
H2126       H  0.16683212  0.46115285  0.63080569     0.12000
H2127       H  0.15210281  0.53538638  0.62154051     0.14700
H2128       H  0.10322849  0.53385439  0.61766874     0.13500
H2129       H  0.11715165  0.42793930  0.61716049     0.11200
H2130       H  0.16614142  0.42834621  0.61585867     0.13200
C2131       C  0.12640626  0.36820581  0.21528304     0.19200
C2132       C  0.11482431  0.35406807  0.22835205    -0.18800
C2133       C  0.11775469  0.35399413  0.25056756    -0.11100
C2134       C  0.13272414  0.36779439  0.26015118     0.21500
C2135       C  0.14454679  0.38169969  0.24703574    -0.20500
C2136       C  0.14129367  0.38208416  0.22486582    -0.11300
C2137       C  0.13726332  0.36715237  0.28352992    -0.15500
C2138       C  0.12234496  0.36245091  0.29836128    -0.29300
C2139       C  0.12370424  0.36710082  0.19166108    -0.03600
C2140       C  0.12551698  0.38424307  0.17869891    -0.40100
H2141       H  0.10350740  0.34299008  0.22132435     0.12700
H2142       H  0.10878706  0.34266300  0.26011222     0.12300
H2143       H  0.15639152  0.39226923  0.25397774     0.11700
H2144       H  0.15091710  0.39275942  0.21519828     0.12000
H2145       H  0.15325753  0.37153664  0.28875407     0.14700
H2146       H  0.10588604  0.35974883  0.29351180     0.13500
H2147       H  0.11947354  0.35171036  0.18479154     0.11200
H2148       H  0.12815879  0.39998879  0.18551190     0.13200
C2149       C  0.12712874  0.50914910  0.36854754     0.19200
C2150       C  0.14625913  0.49766269  0.36594932    -0.18800
C2151       C  0.14625736  0.47527967  0.36529595    -0.11100
C2152       C  0.12699018  0.46376037  0.36729740     0.21500
C2153       C  0.10790695  0.47526611  0.37018245    -0.20500
C2154       C  0.10791729  0.49762572  0.37086442    -0.11300
C2155       C  0.12579968  0.43991230  0.36685519    -0.15500
C2156       C  0.14239952  0.42668957  0.36295822    -0.29300
C2157       C  0.12812393  0.53298964  0.36911809    -0.03600
C2158       C  0.11100907  0.54595189  0.36701469    -0.40100
H2159       H  0.16132660  0.50605895  0.36433296     0.12700
H2160       H  0.16144390  0.46729377  0.36334663     0.12300
H2161       H  0.09284178  0.46690366  0.37200505     0.11700
H2162       H  0.09283824  0.50562670  0.37351559     0.12000
H2163       H  0.11020290  0.43283771  0.36984614     0.14700
H2164       H  0.15821420  0.43291795  0.35965626     0.13500
H2165       H  0.14385377  0.54021211  0.37071467     0.11200
H2166       H  0.09515688  0.53938236  0.36464386     0.13200
C2167       C  0.14635675  0.35805269  0.51130411     0.19200
C2168       C  0.16157747  0.35000846  0.49690698    -0.18800
C2169       C  0.15798365  0.35075671  0.47479757    -0.11100
C2170       C  0.13909845  0.35988049  0.46652595     0.21500
C2171       C  0.12391363  0.36795310  0.48092671    -0.20500
C2172       C  0.12751292  0.36722848  0.50299974    -0.11300
C2173       C  0.13429893  0.36082295  0.44316598    -0.15500
C2174       C  0.14927880  0.35941753  0.42775424    -0.29300
C2175       C  0.15087302  0.35704757  0.53474056    -0.03600
C2176       C  0.13541618  0.35773080  0.54971218    -0.40100
H2177       H  0.17622178  0.34286527  0.50280627     0.12700
H2178       H  0.16989249  0.34381718  0.46437996     0.12300
H2179       H  0.10925176  0.37509249  0.47505697     0.11700
H2180       H  0.11561492  0.37424523  0.51337897     0.12000
H2181       H  0.11773980  0.36333304  0.43849542     0.14700
H2182       H  0.16603093  0.35782895  0.43195621     0.13500
H2183       H  0.16739136  0.35508913  0.53979110     0.11200
H2184       H  0.11876158  0.35854895  0.54492602     0.13200
C2185       C  0.70927366  0.86692511  0.37316845     0.19200
C2186       C  0.72290798  0.85526299  0.35974289    -0.18800
C2187       C  0.74510989  0.85692986  0.36188988    -0.11100
C2188       C  0.75405799  0.87012292  0.37776485     0.21500
C2189       C  0.74039722  0.88144804  0.39144787    -0.20500
C2190       C  0.71822874  0.87998283  0.38913453    -0.11300
C2191       C  0.77744657  0.87131713  0.38145169    -0.15500
C2192       C  0.79204968  0.86811789  0.36600201    -0.29300
C2193       C  0.68582340  0.86422218  0.37104915    -0.03600
C2194       C  0.67190280  0.87983440  0.37595713    -0.40100
H2195       H  0.71634981  0.84479507  0.34760399     0.12700
H2196       H  0.75515274  0.84738977  0.35154056     0.12300
H2197       H  0.74691169  0.89138081  0.40405328     0.11700
H2198       H  0.70817008  0.88859887  0.40025892     0.12000
H2199       H  0.78280898  0.87529200  0.39749887     0.14700
H2200       H  0.78703361  0.86538765  0.34961532     0.13500
H2201       H  0.67989572  0.84902889  0.36504156     0.11200
H2202       H  0.67770054  0.89549922  0.38068841     0.13200
C2203       C  0.85730995  0.71859424  0.36877597     0.19200
C2204       C  0.84110615  0.73105285  0.37804685    -0.18800
C2205       C  0.84217978  0.75341723  0.37757478    -0.11100
C2206       C  0.85939140  0.76384962  0.36749726     0.21500
C2207       C  0.87530754  0.75140968  0.35771694    -0.20500
C2208       C  0.87440118  0.72902845  0.35846571    -0.11300
C2209       C  0.86070310  0.78759815  0.36619166    -0.15500
C2210       C  0.85303303  0.80059156  0.38154936    -0.29300
C2211       C  0.85534958  0.69485186  0.36931147    -0.03600
C2212       C  0.87228289  0.68152468  0.36890258    -0.40100
H2213       H  0.82758498  0.72344047  0.38575740     0.12700
H2214       H  0.82927457  0.76248493  0.38469425     0.12300
H2215       H  0.88854452  0.75904637  0.34955027     0.11700
H2216       H  0.88683376  0.71998306  0.35053381     0.12000
H2217       H  0.86908793  0.79454526  0.35264395     0.14700
H2218       H  0.84607449  0.79377355  0.39592005     0.13500
H2219       H  0.83938524  0.68814622  0.37086113     0.11200
H2220       H  0.88839685  0.68797914  0.36869013     0.13200
C2221       C  0.87462867  0.26175627  0.37967780     0.19200
C2222       C  0.86075779  0.24999130  0.39283665    -0.18800
C2223       C  0.86272636  0.22773682  0.39451354    -0.11100
C2224       C  0.87840955  0.21673993  0.38271731     0.21500
C2225       C  0.89176915  0.22841346  0.36896848    -0.20500
C2226       C  0.89004844  0.25069688  0.36757237    -0.11300
C2227       C  0.88053472  0.19306833  0.38374173    -0.15500
C2228       C  0.87681504  0.18178996  0.40171198    -0.29300
C2229       C  0.87249586  0.28545522  0.37862663    -0.03600
C2230       C  0.88950034  0.29834655  0.37584865    -0.40100
H2231       H  0.84854522  0.25808119  0.40206060     0.12700
H2232       H  0.85171345  0.21913554  0.40474225     0.12300
H2233       H  0.90370808  0.22027643  0.35942835     0.11700
H2234       H  0.90057494  0.25918657  0.35675441     0.12000
H2235       H  0.88601060  0.18479402  0.36948928     0.14700
H2236       H  0.87277603  0.19010158  0.41639876     0.13500
H2237       H  0.85684719  0.29246544  0.38142963     0.11200
H2238       H  0.90537195  0.29140066  0.37464803     0.13200
C2239       C  0.73261057  0.11782595  0.38142891     0.19200
C2240       C  0.74338279  0.10422694  0.39566241    -0.18800
C2241       C  0.76571931  0.10457223  0.39700861    -0.11100
C2242       C  0.77772614  0.11830760  0.38381806     0.21500
C2243       C  0.76696597  0.13151101  0.36920331    -0.20500
C2244       C  0.74461405  0.13144994  0.36813836    -0.11300
C2245       C  0.80146185  0.11861215  0.38438832    -0.15500
C2246       C  0.81266981  0.11526480  0.40243734    -0.29300
C2247       C  0.70892937  0.11689644  0.38016241    -0.03600
C2248       C  0.69689917  0.13428635  0.37629452    -0.40100
H2249       H  0.73447427  0.09339952  0.40584295     0.12700
H2250       H  0.77355986  0.09374086  0.40802218     0.12300
H2251       H  0.77588538  0.14199395  0.35867825     0.11700
H2252       H  0.73677860  0.14171096  0.35658452     0.12000
H2253       H  0.80989775  0.12267692  0.36974991     0.14700
H2254       H  0.80433679  0.11275441  0.41746015     0.13500
H2255       H  0.70114644  0.10174238  0.38362407     0.11200
H2256       H  0.70445537  0.14984412  0.37465796     0.13200
C2257       C  0.86476110  0.96857655  0.39290617     0.19200
C2258       C  0.87400636  0.97904031  0.41049250    -0.18800
C2259       C  0.87705513  0.00124288  0.41034655    -0.11100
C2260       C  0.87057909  0.01359676  0.39263960     0.21500
C2261       C  0.86120913  0.00311213  0.37512237    -0.20500
C2262       C  0.85822005  0.98092020  0.37525058    -0.11300
C2263       C  0.87348898  0.03727989  0.39154045    -0.15500
C2264       C  0.87667017  0.04990859  0.40871267    -0.29300
C2265       C  0.86188467  0.94490878  0.39373780    -0.03600
C2266       C  0.86075172  0.93243557  0.37619985    -0.40100
H2267       H  0.87918503  0.96994623  0.42430318     0.12700
H2268       H  0.88478541  0.00848695  0.42400252     0.12300
H2269       H  0.85597671  0.01217245  0.36130791     0.11700
H2270       H  0.85047778  0.97360127  0.36162604     0.12000
H2271       H  0.87193785  0.04476433  0.37592593     0.14700
H2272       H  0.87716274  0.04308196  0.42464214     0.13500
H2273       H  0.86177578  0.93737340  0.40940163     0.11200
H2274       H  0.86220086  0.93948040  0.36041349     0.13200
C2275       C  0.10593151  0.71462602  0.36521358     0.19200
C2276       C  0.09027040  0.72659832  0.37592484    -0.18800
C2277       C  0.09176132  0.74890333  0.37709775    -0.11100
C2278       C  0.10881448  0.75978731  0.36722741     0.21500
C2279       C  0.12403974  0.74790298  0.35580867    -0.20500
C2280       C  0.12275517  0.72553583  0.35494778    -0.11300
C2281       C  0.11068190  0.78350989  0.36810428    -0.15500
C2282       C  0.10472748  0.79486835  0.38537605    -0.29300
C2283       C  0.10393844  0.69089373  0.36471019    -0.03600
C2284       C  0.12091748  0.67765995  0.36385902    -0.40100
H2285       H  0.07696530  0.71863145  0.38365739     0.12700
H2286       H  0.07936741  0.75762434  0.38545759     0.12300
H2287       H  0.13711303  0.75593769  0.34776283     0.11700
H2288       H  0.13474909  0.71687753  0.34597679     0.12000
H2289       H  0.11797751  0.79169518  0.35462132     0.14700
H2290       H  0.09889976  0.78656582  0.39947976     0.13500
H2291       H  0.08803023  0.68409948  0.36644459     0.11200
H2292       H  0.13698859  0.68422774  0.36355614     0.13200
C2293       C  0.20947538  0.86267817  0.38756195     0.19200
C2294       C  0.22352833  0.85248001  0.37338646    -0.18800
C2295       C  0.24556821  0.85594448  0.37475750    -0.11100
C2296       C  0.25394449  0.87003252  0.39013664     0.21500
C2297       C  0.23989930  0.88040929  0.40418862    -0.20500
C2298       C  0.21786442  0.87663835  0.40307499    -0.11300
C2299       C  0.27708361  0.87512075  0.39092037    -0.15500
C2300       C  0.29221556  0.86050134  0.38662881    -0.29300
C2301       C  0.18612357  0.85982467  0.38457172    -0.03600
C2302       C  0.17185384  0.86120561  0.40060498    -0.40100
H2303       H  0.21740062  0.84194653  0.36108304     0.12700
H2304       H  0.25594851  0.84815556  0.36330902     0.12300
H2305       H  0.24599547  0.89154692  0.41596391     0.11700
H2306       H  0.20740630  0.88525176  0.41383162     0.12000
H2307       H  0.28178658  0.89113180  0.39576618     0.14700
H2308       H  0.28769991  0.84402081  0.38351138     0.13500
H2309       H  0.18051804  0.85628548  0.36850770     0.11200
H2310       H  0.17725936  0.86336280  0.41695809     0.13200
C2311       C  0.95933825  0.86344389  0.38164616     0.19200
C2312       C  0.97326323  0.85670040  0.36542907    -0.18800
C2313       C  0.99530823  0.85578784  0.36896485    -0.11100
C2314       C  0.00396953  0.86196095  0.38880248     0.21500
C2315       C  0.99005309  0.86865776  0.40504836    -0.20500
C2316       C  0.96799302  0.86958223  0.40150929    -0.11300
C2317       C  0.02730652  0.86127647  0.39325146    -0.15500
C2318       C  0.04223772  0.86232210  0.37781374    -0.29300
C2319       C  0.93603879  0.86421479  0.37701225    -0.03600
C2320       C  0.92087784  0.86413403  0.39225714    -0.40100
H2321       H  0.96702919  0.85185920  0.35000401     0.12700
H2322       H  0.00536904  0.84989252  0.35622201     0.12300
H2323       H  0.99631137  0.87349804  0.42046480     0.11700
H2324       H  0.95794870  0.87547056  0.41426722     0.12000
H2325       H  0.03235777  0.86062535  0.40987746     0.14700
H2326       H  0.03757499  0.86405604  0.36119349     0.13500
H2327       H  0.93117908  0.86422467  0.36031679     0.11200
H2328       H  0.92521396  0.86326596  0.40902270     0.13200
C2329       C  0.27772466  0.10394338  0.37715814     0.19200
C2330       C  0.26455810  0.09208228  0.39096052    -0.18800
C2331       C  0.24223341  0.09380363  0.38978170    -0.11100
C2332       C  0.23256719  0.10724246  0.37448852     0.21500
C2333       C  0.24575741  0.11865886  0.36033093    -0.20500
C2334       C  0.26807215  0.11718070  0.36172549    -0.11300
C2335       C  0.20888026  0.10911194  0.37228015    -0.15500
C2336       C  0.19517662  0.10607444  0.38862929    -0.29300
C2337       C  0.30137838  0.10140015  0.37849288    -0.03600
C2338       C  0.31517313  0.11732524  0.37391061    -0.40100
H2339       H  0.27158235  0.08149482  0.40274393     0.12700
H2340       H  0.23263650  0.08420797  0.40053216     0.12300
H2341       H  0.23876102  0.12883732  0.34817945     0.11700
H2342       H  0.27771598  0.12603246  0.35038305     0.12000
H2343       H  0.20258174  0.11398823  0.35683289     0.14700
H2344       H  0.20128524  0.10246428  0.40446599     0.13500
H2345       H  0.30758256  0.08618582  0.38416359     0.11200
H2346       H  0.30910252  0.13306150  0.36978815     0.13200
C2347       C  0.13969151  0.25819072  0.37041345     0.19200
C2348       C  0.15149581  0.24572268  0.38491259    -0.18800
C2349       C  0.14859297  0.22350606  0.38588554    -0.11100
C2350       C  0.13408413  0.21331588  0.37203171     0.21500
C2351       C  0.12254243  0.22576358  0.35734351    -0.20500
C2352       C  0.12515225  0.24795919  0.35663644    -0.11300
C2353       C  0.13172953  0.18968530  0.37131334    -0.15500
C2354       C  0.13409995  0.17680798  0.38843790    -0.29300
C2355       C  0.14337265  0.28167536  0.36931996    -0.03600
C2356       C  0.12763447  0.29554991  0.36453547    -0.40100
H2357       H  0.16297545  0.25320324  0.39550996     0.12700
H2358       H  0.15817325  0.21429836  0.39699403     0.12300
H2359       H  0.11152151  0.21825461  0.34628533     0.11700
H2360       H  0.11621760  0.25699785  0.34486944     0.12000
H2361       H  0.12721315  0.18267551  0.35606791     0.14700
H2362       H  0.13713911  0.18359877  0.40411453     0.13500
H2363       H  0.15909569  0.28775969  0.37356360     0.11200
H2364       H  0.11143505  0.28971376  0.36222950     0.13200
C2365       C  0.98132742  0.11548516  0.39274586     0.19200
C2366       C  0.99313258  0.10861792  0.37492556    -0.18800
C2367       C  0.01552997  0.10829620  0.37538925    -0.11100
C2368       C  0.02671296  0.11508995  0.39370709     0.21500
C2369       C  0.01493194  0.12199701  0.41150854    -0.20500
C2370       C  0.99254659  0.12238926  0.41102588    -0.11300
C2371       C  0.05051401  0.11454311  0.39519544    -0.15500
C2372       C  0.06364983  0.11482679  0.37810341    -0.29300
C2373       C  0.95747615  0.11548534  0.39140863    -0.03600
C2374       C  0.94446432  0.11628638  0.40856851    -0.40100
H2375       H  0.98497752  0.10320856  0.36063810     0.12700
H2376       H  0.02392037  0.10230270  0.36152139     0.12300
H2377       H  0.02310360  0.12731863  0.42582181     0.11700
H2378       H  0.98425515  0.12839381  0.42493569     0.12000
H2379       H  0.05749899  0.11443158  0.41110948     0.14700
H2380       H  0.05711671  0.11594716  0.36208073     0.13500
H2381       H  0.95034462  0.11415619  0.37561681     0.11200
H2382       H  0.95108235  0.11678980  0.42457332     0.13200
C2383       C  0.11403194  0.96369922  0.38312039     0.19200
C2384       C  0.12706649  0.97573758  0.36937516    -0.18800
C2385       C  0.12920284  0.99784684  0.37205563    -0.11100
C2386       C  0.11802071  0.00852652  0.38841307     0.21500
C2387       C  0.10487238  0.99651957  0.40208214    -0.20500
C2388       C  0.10272780  0.97439678  0.39939450    -0.11300
C2389       C  0.12002043  0.03201109  0.39188422    -0.15500
C2390       C  0.12497618  0.04575399  0.37607347    -0.29300
C2391       C  0.11263063  0.94011845  0.37995869    -0.03600
C2392       C  0.10771637  0.92641988  0.39582657    -0.40100
H2393       H  0.13596676  0.96793708  0.35674105     0.12700
H2394       H  0.13997296  0.00638031  0.36154161     0.12300
H2395       H  0.09603198  0.00432936  0.41475421     0.11700
H2396       H  0.09200173  0.96584931  0.40994215     0.12000
H2397       H  0.11641795  0.03824585  0.40769135     0.14700
H2398       H  0.12725375  0.03989152  0.35991773     0.13500
H2399       H  0.11692296  0.93376037  0.36437629     0.11200
H2400       H  0.10459171  0.93240765  0.41178897     0.13200
loop_ 
_geom_bond_atom_site_label_1 
_geom_bond_atom_site_label_2 
_geom_bond_distance 
_geom_bond_site_symmetry_2 
_ccdc_geom_bond_type 
O1           Cu9   2.026       .  S
O1           C11   1.280       .  A
O2           Cu9   2.027       .  S
O2           C12   1.279       .  A
O3           Cu9   2.014       .  S
O3           C13   1.279       .  A
O4           Cu9   2.014       .  S
O4           C14   1.278       .  A
O5          Cu10   2.024       .  S
O5           C14   1.280       .  A
O6          Cu10   2.020       .  S
O6           C13   1.279       .  A
O7          Cu10   2.003       .  S
O7           C12   1.277       .  A
O8          Cu10   2.002       .  S
O8           C11   1.276       .  A
Cu9         Cu10   2.372       .  S
C11        C2390   1.477       .  S
C12        C2354   1.481       .  S
C13        C2372   1.481       .  S
C14        C2336   1.482       .  S
O15         Cu23   2.028       .  S
O15          C25   1.281       .  A
O16         Cu23   2.027       .  S
O16          C26   1.280       .  A
O17         Cu23   2.003       .  S
O17          C27   1.276       .  A
O18         Cu23   2.001       .  S
O18          C28   1.277       .  A
O19         Cu24   2.018       .  S
O19          C28   1.278       .  A
O20         Cu24   2.013       .  S
O20          C27   1.279       .  A
O21         Cu24   2.008       .  S
O21          C26   1.277       .  A
O22         Cu24   2.003       .  S
O22          C25   1.276       .  A
Cu23        Cu24   2.374       .  S
C25        C2392   1.478       .  S
C26        C2282   1.480       .  S
C27        C2318   1.474       .  S
C28        C2302   1.476       .  S
O29         Cu37   2.021       .  S
O29          C39   1.280       .  A
O30         Cu37   2.018       .  S
O30          C40   1.279       .  A
O31         Cu37   2.021       .  S
O31          C41   1.280       .  A
O32         Cu37   2.017       .  S
O32          C42   1.279       .  A
O33         Cu38   2.007       .  S
O33          C42   1.276       .  A
O34         Cu38   2.011       .  S
O34          C41   1.277       .  A
O35         Cu38   2.016       .  S
O35          C40   1.278       .  A
O36         Cu38   2.013       .  S
O36          C39   1.278       .  A
Cu37        Cu38   2.373       .  S
C39        C2264   1.482       .  S
C40        C2228   1.480       .  S
C41        C2374   1.480       .  S
C42        C2246   1.476       .  S
O43         Cu51   2.010       .  S
O43          C53   1.279       .  A
O44         Cu51   2.012       .  S
O44          C54   1.277       .  A
O45         Cu51   2.018       .  S
O45          C55   1.278       .  A
O46         Cu51   2.019       .  S
O46          C56   1.279       .  A
O47         Cu52   2.017       .  S
O47          C56   1.278       .  A
O48         Cu52   2.018       .  S
O48          C55   1.279       .  A
O49         Cu52   2.002       .  S
O49          C54   1.278       .  A
O50         Cu52   2.003       .  S
O50          C53   1.276       .  A
Cu51        Cu52   2.373       .  S
C53        C2320   1.473       .  S
C54        C2192   1.474       .  S
C55        C2266   1.481       .  S
C56        C2210   1.480       .  S
O57         Cu65   2.020       .  S
O57          C67   1.279       .  A
O58         Cu65   2.010       .  S
O58          C68   1.277       .  A
O59         Cu65   2.028       .  S
O59          C69   1.280       .  A
O60         Cu65   2.021       .  S
O60          C70   1.279       .  A
O61         Cu66   2.007       .  S
O61          C70   1.278       .  A
O62         Cu66   2.004       .  S
O62          C69   1.276       .  A
O63         Cu66   2.023       .  S
O63          C68   1.280       .  A
O64         Cu66   2.020       .  S
O64          C67   1.278       .  A
Cu65        Cu66   2.373       .  S
C67        C2138   1.482       .  S
C68        C2174   1.481       .  S
C69        C2356   1.477       .  S
C70        C2156   1.481       .  S
O71         Cu79   2.002       .  S
O71          C81   1.276       .  A
O72         Cu79   2.007       .  S
O72          C82   1.276       .  A
O73         Cu79   2.035       .  S
O73          C83   1.280       .  A
O74         Cu79   2.035       .  S
O74          C84   1.281       .  A
O75         Cu80   2.000       .  S
O75          C84   1.276       .  A
O76         Cu80   1.997       .  S
O76          C83   1.277       .  A
O77         Cu80   2.028       .  S
O77          C82   1.281       .  A
O78         Cu80   2.027       .  S
O78          C81   1.280       .  A
Cu79        Cu80   2.372       .  S
C81        C2084   1.477       .  S
C82        C2122   1.482       .  S
C83        C2102   1.484       .  S
C84        C2176   1.480       .  S
O85         Cu93   2.017       .  S
O85          C95   1.278       .  A
O86         Cu93   2.019       .  S
O86          C96   1.279       .  A
O87         Cu93   2.013       .  S
O87          C97   1.279       .  A
O88         Cu93   2.014       .  S
O88          C98   1.278       .  A
O89         Cu94   2.014       .  S
O89          C98   1.279       .  A
O90         Cu94   2.009       .  S
O90          C97   1.277       .  A
O91         Cu94   2.017       .  S
O91          C96   1.278       .  A
O92         Cu94   2.013       .  S
O92          C95   1.279       .  A
Cu93        Cu94   2.373       .  S
C95        C2158   1.480       .  S
C96        C2284   1.481       .  S
C97        C2048   1.476       .  S
C98        C2068   1.479       .  S
O99        Cu107   2.025       .  S
O99         C109   1.279       .  A
O100       Cu107   2.019       .  S
O100        C110   1.280       .  A
O101       Cu107   2.003       .  S
O101        C111   1.276       .  A
O102       Cu107   2.002       .  S
O102        C112   1.276       .  A
O103       Cu108   2.028       .  S
O103        C112   1.280       .  A
O104       Cu108   2.033       .  S
O104        C111   1.281       .  A
O105       Cu108   2.015       .  S
O105        C110   1.277       .  A
O106       Cu108   2.009       .  S
O106        C109   1.278       .  A
Cu107      Cu108   2.373       .  S
C109       C2012   1.482       .  S
C110       C2066   1.481       .  S
C111       C2120   1.480       .  S
C112       C2030   1.476       .  S
O113       Cu121   2.012       .  S
O113        C123   1.277       .  A
O114       Cu121   2.021       .  S
O114        C124   1.279       .  A
O115       Cu121   2.019       .  S
O115        C125   1.280       .  A
O116       Cu121   2.024       .  S
O116        C126   1.280       .  A
O117       Cu122   2.003       .  S
O117        C126   1.276       .  A
O118       Cu122   2.006       .  S
O118        C125   1.276       .  A
O119       Cu122   2.015       .  S
O119        C124   1.278       .  A
O120       Cu122   2.022       .  S
O120        C123   1.280       .  A
Cu121      Cu122   2.373       .  S
C123       C1994   1.482       .  S
C124       C1958   1.480       .  S
C125       C2248   1.475       .  S
C126       C1976   1.476       .  S
O127       Cu135   2.001       .  S
O127        C137   1.276       .  A
O128       Cu135   1.993       .  S
O128        C138   1.274       .  A
O129       Cu135   2.038       .  S
O129        C139   1.282       .  A
O130       Cu135   2.035       .  S
O130        C140   1.281       .  A
O131       Cu136   2.000       .  S
O131        C140   1.276       .  A
O132       Cu136   1.996       .  S
O132        C139   1.275       .  A
O133       Cu136   2.043       .  S
O133        C138   1.282       .  A
O134       Cu136   2.040       .  S
O134        C137   1.281       .  A
Cu135      Cu136   2.373       .  S
C137       C1940   1.481       .  S
C138       C1904   1.478       .  S
C139       C1922   1.478       .  S
C140       C1996   1.479       .  S
O141       Cu149   2.019       .  S
O141        C151   1.279       .  A
O142       Cu149   2.015       .  S
O142        C152   1.278       .  A
O143       Cu149   2.002       .  S
O143        C153   1.276       .  A
O144       Cu149   2.008       .  S
O144        C154   1.277       .  A
O145       Cu150   2.018       .  S
O145        C154   1.279       .  A
O146       Cu150   2.021       .  S
O146        C153   1.280       .  A
O147       Cu150   2.015       .  S
O147        C152   1.279       .  A
O148       Cu150   2.019       .  S
O148        C151   1.278       .  A
Cu149      Cu150   2.373       .  S
C151       C2338   1.481       .  S
C152       C1978   1.480       .  S
C153       C1888   1.475       .  S
C154       C1868   1.477       .  S
O155       Cu163   2.020       .  S
O155        C165   1.280       .  A
O156       Cu163   2.025       .  S
O156        C166   1.279       .  A
O157       Cu163   2.014       .  S
O157        C167   1.278       .  A
O158       Cu163   2.017       .  S
O158        C168   1.279       .  A
O159       Cu164   2.009       .  S
O159        C168   1.277       .  A
O160       Cu164   2.003       .  S
O160        C167   1.278       .  A
O161       Cu164   2.012       .  S
O161        C166   1.279       .  A
O162       Cu164   2.013       .  S
O162        C165   1.277       .  A
Cu163      Cu164   2.373       .  S
C165       C1852   1.479       .  S
C166       C1942   1.485       .  S
C167       C1886   1.477       .  S
C168       C1834   1.477       .  S
O169       Cu177   2.008       .  S
O169        C179   1.277       .  A
O170       Cu177   2.009       .  S
O170        C180   1.278       .  A
O171       Cu177   2.026       .  S
O171        C181   1.280       .  A
O172       Cu177   2.019       .  S
O172        C182   1.278       .  A
O173       Cu178   2.017       .  S
O173        C182   1.279       .  A
O174       Cu178   2.015       .  S
O174        C181   1.278       .  A
O175       Cu178   2.028       .  S
O175        C180   1.279       .  A
O176       Cu178   2.027       .  S
O176        C179   1.280       .  A
Cu177      Cu178   2.372       .  S
C179       C1778   1.480       .  S
C180       C1814   1.484       .  S
C181       C1798   1.483       .  S
C182       C2212   1.481       .  S
O183       Cu191   2.008       .  S
O183        C193   1.279       .  A
O184       Cu191   2.013       .  S
O184        C194   1.277       .  A
O185       Cu191   2.020       .  S
O185        C195   1.279       .  A
O186       Cu191   2.022       .  S
O186        C196   1.280       .  A
O187       Cu192   2.006       .  S
O187        C196   1.276       .  A
O188       Cu192   2.014       .  S
O188        C195   1.278       .  A
O189       Cu192   2.020       .  S
O189        C194   1.279       .  A
O190       Cu192   2.022       .  S
O190        C193   1.278       .  A
Cu191      Cu192   2.373       .  S
C193       C1762   1.482       .  S
C194       C1724   1.479       .  S
C195       C1816   1.481       .  S
C196       C1742   1.478       .  S
O197       Cu205   2.021       .  S
O197        C207   1.280       .  A
O198       Cu205   2.019       .  S
O198        C208   1.278       .  A
O199       Cu205   2.004       .  S
O199        C209   1.276       .  A
O200       Cu205   2.000       .  S
O200        C210   1.275       .  A
O201       Cu206   2.035       .  S
O201        C210   1.281       .  A
O202       Cu206   2.035       .  S
O202        C209   1.281       .  A
O203       Cu206   2.005       .  S
O203        C208   1.278       .  A
O204       Cu206   2.002       .  S
O204        C207   1.276       .  A
Cu205      Cu206   2.373       .  S
C207       C1708   1.476       .  S
C208       C1688   1.479       .  S
C209       C1796   1.481       .  S
C210       C2230   1.479       .  S
O211       Cu219   2.019       .  S
O211        C221   1.278       .  A
O212       Cu219   2.017       .  S
O212        C222   1.279       .  A
O213       Cu219   2.019       .  S
O213        C223   1.279       .  A
O214       Cu219   2.019       .  S
O214        C224   1.278       .  A
O215       Cu220   2.005       .  S
O215        C224   1.278       .  A
O216       Cu220   2.007       .  S
O216        C223   1.277       .  A
O217       Cu220   2.013       .  S
O217        C222   1.278       .  A
O218       Cu220   2.012       .  S
O218        C221   1.279       .  A
Cu219      Cu220   2.373       .  S
C221       C1670   1.480       .  S
C222       C1760   1.479       .  S
C223       C1652   1.476       .  S
C224       C1706   1.479       .  S
O225       Cu233   2.019       .  S
O225        C235   1.278       .  A
O226       Cu233   2.016       .  S
O226        C236   1.279       .  A
O227       Cu233   2.005       .  S
O227        C237   1.276       .  A
O228       Cu233   2.012       .  S
O228        C238   1.278       .  A
O229       Cu234   2.024       .  S
O229        C238   1.279       .  A
O230       Cu234   2.028       .  S
O230        C237   1.281       .  A
O231       Cu234   2.003       .  S
O231        C236   1.276       .  A
O232       Cu234   1.994       .  S
O232        C235   1.277       .  A
Cu233      Cu234   2.373       .  S
C235       C1616   1.477       .  S
C236       C2300   1.473       .  S
C237       C1634   1.480       .  S
C238       C1598   1.483       .  S
O239       Cu247   1.997       .  S
O239        C249   1.275       .  A
O240       Cu247   2.001       .  S
O240        C250   1.276       .  A
O241       Cu247   2.030       .  S
O241        C251   1.281       .  A
O242       Cu247   2.034       .  S
O242        C252   1.281       .  A
O243       Cu248   1.998       .  S
O243        C252   1.275       .  A
O244       Cu248   2.000       .  S
O244        C251   1.276       .  A
O245       Cu248   2.030       .  S
O245        C250   1.281       .  A
O246       Cu248   2.034       .  S
O246        C249   1.281       .  A
Cu247      Cu248   2.374       .  S
C249       C1546   1.477       .  S
C250       C1580   1.478       .  S
C251       C1636   1.478       .  S
C252       C1562   1.477       .  S
O253       Cu261   2.011       .  S
O253        C263   1.277       .  A
O254       Cu261   2.017       .  S
O254        C264   1.279       .  A
O255       Cu261   2.017       .  S
O255        C265   1.278       .  A
O256       Cu261   2.023       .  S
O256        C266   1.280       .  A
O257       Cu262   2.013       .  S
O257        C266   1.277       .  A
O258       Cu262   2.019       .  S
O258        C265   1.279       .  A
O259       Cu262   2.017       .  S
O259        C264   1.278       .  A
O260       Cu262   2.021       .  S
O260        C263   1.280       .  A
Cu261      Cu262   2.372       .  S
C263       C1582   1.481       .  S
C264       C1508   1.480       .  S
C265       C1490   1.480       .  S
C266       C1528   1.481       .  S
O267       Cu275   2.006       .  S
O267        C277   1.277       .  A
O268       Cu275   2.003       .  S
O268        C278   1.278       .  A
O269       Cu275   2.012       .  S
O269        C279   1.278       .  A
O270       Cu275   2.010       .  S
O270        C280   1.277       .  A
O271       Cu276   2.018       .  S
O271        C280   1.279       .  A
O272       Cu276   2.020       .  S
O272        C279   1.279       .  A
O273       Cu276   2.010       .  S
O273        C278   1.277       .  A
O274       Cu276   2.006       .  S
O274        C277   1.278       .  A
Cu275      Cu276   2.374       .  S
C277       C2194   1.472       .  S
C278       C1618   1.474       .  S
C279       C1526   1.481       .  S
C280       C1472   1.478       .  S
O281       Cu289   2.023       .  S
O281        C291   1.280       .  A
O282       Cu289   2.027       .  S
O282        C292   1.280       .  A
O283       Cu289   2.010       .  S
O283        C293   1.279       .  A
O284       Cu289   2.010       .  S
O284        C294   1.277       .  A
O285       Cu290   2.019       .  S
O285        C294   1.280       .  A
O286       Cu290   2.019       .  S
O286        C293   1.278       .  A
O287       Cu290   2.006       .  S
O287        C292   1.277       .  A
O288       Cu290   2.006       .  S
O288        C291   1.276       .  A
Cu289      Cu290   2.373       .  S
C291       C2032   1.478       .  S
C292       C1454   1.479       .  S
C293       C1544   1.480       .  S
C294       C1436   1.479       .  S
O295       Cu303   2.015       .  S
O295        C305   1.279       .  A
O296       Cu303   2.009       .  S
O296        C306   1.277       .  A
O297       Cu303   2.013       .  S
O297        C307   1.279       .  A
O298       Cu303   2.014       .  S
O298        C308   1.278       .  A
O299       Cu304   2.015       .  S
O299        C308   1.279       .  A
O300       Cu304   2.019       .  S
O300        C307   1.278       .  A
O301       Cu304   2.015       .  S
O301        C306   1.279       .  A
O302       Cu304   2.016       .  S
O302        C305   1.278       .  A
Cu303      Cu304   2.373       .  S
C305       C1456   1.481       .  S
C306       C2086   1.477       .  S
C307       C1420   1.482       .  S
C308       C1850   1.479       .  S
O309       Cu317   2.014       .  S
O309        C319   1.278       .  A
O310       Cu317   2.014       .  S
O310        C320   1.280       .  A
O311       Cu317   2.020       .  S
O311        C321   1.279       .  A
O312       Cu317   2.021       .  S
O312        C322   1.279       .  A
O313       Cu318   2.012       .  S
O313        C322   1.278       .  A
O314       Cu318   2.015       .  S
O314        C321   1.278       .  A
O315       Cu318   2.020       .  S
O315        C320   1.278       .  A
O316       Cu318   2.016       .  S
O316        C319   1.279       .  A
Cu317      Cu318   2.372       .  S
C319       C1672   1.479       .  S
C320       C1402   1.483       .  S
C321       C1906   1.481       .  S
C322       C1418   1.480       .  S
O323       Cu331   2.028       .  S
O323        C333   1.280       .  A
O324       Cu331   2.025       .  S
O324        C334   1.280       .  A
O325       Cu331   2.003       .  S
O325        C335   1.277       .  A
O326       Cu331   2.003       .  S
O326        C336   1.277       .  A
O327       Cu332   2.030       .  S
O327        C336   1.280       .  A
O328       Cu332   2.033       .  S
O328        C335   1.280       .  A
O329       Cu332   2.007       .  S
O329        C334   1.277       .  A
O330       Cu332   2.001       .  S
O330        C333   1.276       .  A
Cu331      Cu332   2.372       .  S
C333       C1438   1.477       .  S
C334       C1510   1.479       .  S
C335       C1400   1.479       .  S
C336       C1726   1.482       .  S
O337       Cu345   2.025       .  S
O337        C347   1.280       .  A
O338       Cu345   2.020       .  S
O338        C348   1.280       .  A
O339       Cu345   2.006       .  S
O339        C349   1.278       .  A
O340       Cu345   1.999       .  S
O340        C350   1.276       .  A
O341       Cu346   2.027       .  S
O341        C350   1.280       .  A
O342       Cu346   2.023       .  S
O342        C349   1.279       .  A
O343       Cu346   2.010       .  S
O343        C348   1.277       .  A
O344       Cu346   2.006       .  S
O344        C347   1.276       .  A
Cu345      Cu346   2.373       .  S
C347       C1346   1.478       .  S
C348       C1364   1.479       .  S
C349       C1870   1.480       .  S
C350       C1382   1.477       .  S
O351       Cu359   1.997       .  S
O351        C361   1.275       .  A
O352       Cu359   1.995       .  S
O352        C362   1.275       .  A
O353       Cu359   2.025       .  S
O353        C363   1.281       .  A
O354       Cu359   2.022       .  S
O354        C364   1.279       .  A
O355       Cu360   2.002       .  S
O355        C364   1.278       .  A
O356       Cu360   1.999       .  S
O356        C363   1.275       .  A
O357       Cu360   2.022       .  S
O357        C362   1.280       .  A
O358       Cu360   2.022       .  S
O358        C361   1.280       .  A
Cu359      Cu360   2.375       .  S
C361       C1310   1.473       .  S
C362       C1330   1.473       .  S
C363       C1384   1.477       .  S
C364       C1832   1.479       .  S
O365       Cu373   2.007       .  S
O365        C375   1.276       .  A
O366       Cu373   2.010       .  S
O366        C376   1.278       .  A
O367       Cu373   2.027       .  S
O367        C377   1.281       .  A
O368       Cu373   2.029       .  S
O368        C378   1.280       .  A
O369       Cu374   2.000       .  S
O369        C378   1.277       .  A
O370       Cu374   2.002       .  S
O370        C377   1.276       .  A
O371       Cu374   2.015       .  S
O371        C376   1.278       .  A
O372       Cu374   2.012       .  S
O372        C375   1.279       .  A
Cu373      Cu374   2.373       .  S
C375       C1328   1.476       .  S
C376       C1274   1.477       .  S
C377       C1564   1.478       .  S
C378       C1292   1.482       .  S
O379       Cu387   2.010       .  S
O379        C389   1.277       .  A
O380       Cu387   2.012       .  S
O380        C390   1.277       .  A
O381       Cu387   2.008       .  S
O381        C391   1.277       .  A
O382       Cu387   2.010       .  S
O382        C392   1.277       .  A
O383       Cu388   2.020       .  S
O383        C392   1.279       .  A
O384       Cu388   2.029       .  S
O384        C391   1.280       .  A
O385       Cu388   2.019       .  S
O385        C390   1.279       .  A
O386       Cu388   2.019       .  S
O386        C389   1.279       .  A
Cu387      Cu388   2.373       .  S
C389       C1366   1.479       .  S
C390       C1256   1.479       .  S
C391       C1600   1.480       .  S
C392       C1294   1.479       .  S
O393       Cu401   2.013       .  S
O393        C403   1.279       .  A
O394       Cu401   2.017       .  S
O394        C404   1.278       .  A
O395       Cu401   2.028       .  S
O395        C405   1.280       .  A
O396       Cu401   2.025       .  S
O396        C406   1.280       .  A
O397       Cu402   2.003       .  S
O397        C406   1.276       .  A
O398       Cu402   2.001       .  S
O398        C405   1.276       .  A
O399       Cu402   2.010       .  S
O399        C404   1.279       .  A
O400       Cu402   2.015       .  S
O400        C403   1.278       .  A
Cu401      Cu402   2.374       .  S
C403       C1220   1.479       .  S
C404       C1202   1.479       .  S
C405       C1238   1.478       .  S
C406       C1690   1.476       .  S
O407       Cu415   2.018       .  S
O407        C417   1.278       .  A
O408       Cu415   2.017       .  S
O408        C418   1.279       .  A
O409       Cu415   2.009       .  S
O409        C419   1.277       .  A
O410       Cu415   2.014       .  S
O410        C420   1.279       .  A
O411       Cu416   2.009       .  S
O411        C420   1.277       .  A
O412       Cu416   2.010       .  S
O412        C419   1.279       .  A
O413       Cu416   2.015       .  S
O413        C418   1.278       .  A
O414       Cu416   2.009       .  S
O414        C417   1.278       .  A
Cu415      Cu416   2.373       .  S
C417       C1654   1.479       .  S
C418       C1240   1.481       .  S
C419       C1184   1.477       .  S
C420       C1168   1.477       .  S
O421       Cu429   2.026       .  S
O421        C431   1.279       .  A
O422       Cu429   2.023       .  S
O422        C432   1.280       .  A
O423       Cu429   2.017       .  S
O423        C433   1.279       .  A
O424       Cu429   2.009       .  S
O424        C434   1.277       .  A
O425       Cu430   2.015       .  S
O425        C434   1.279       .  A
O426       Cu430   2.013       .  S
O426        C433   1.278       .  A
O427       Cu430   2.008       .  S
O427        C432   1.277       .  A
O428       Cu430   2.013       .  S
O428        C431   1.278       .  A
Cu429      Cu430   2.373       .  S
C431       C2140   1.482       .  S
C432       C1148   1.479       .  S
C433       C1222   1.480       .  S
C434       C1130   1.477       .  S
O435       Cu443   2.014       .  S
O435        C445   1.279       .  A
O436       Cu443   2.017       .  S
O436        C446   1.278       .  A
O437       Cu443   2.009       .  S
O437        C447   1.277       .  A
O438       Cu443   2.011       .  S
O438        C448   1.277       .  A
O439       Cu444   2.021       .  S
O439        C448   1.280       .  A
O440       Cu444   2.022       .  S
O440        C447   1.279       .  A
O441       Cu444   2.008       .  S
O441        C446   1.278       .  A
O442       Cu444   2.009       .  S
O442        C445   1.277       .  A
Cu443      Cu444   2.373       .  S
C445       C1186   1.476       .  S
C446       C1114   1.479       .  S
C447       C2104   1.478       .  S
C448       C1150   1.480       .  S
O449       Cu457   2.005       .  S
O449        C459   1.277       .  A
O450       Cu457   2.003       .  S
O450        C460   1.278       .  A
O451       Cu457   2.022       .  S
O451        C461   1.280       .  A
O452       Cu457   2.023       .  S
O452        C462   1.280       .  A
O453       Cu458   2.003       .  S
O453        C462   1.276       .  A
O454       Cu458   2.004       .  S
O454        C461   1.276       .  A
O455       Cu458   2.014       .  S
O455        C460   1.278       .  A
O456       Cu458   2.015       .  S
O456        C459   1.279       .  A
Cu457      Cu458   2.374       .  S
C459       C1076   1.476       .  S
C460       C1058   1.476       .  S
C461       C1474   1.476       .  S
C462       C1094   1.477       .  S
O463       Cu471   2.019       .  S
O463        C473   1.279       .  A
O464       Cu471   2.025       .  S
O464        C474   1.280       .  A
O465       Cu471   2.017       .  S
O465        C475   1.278       .  A
O466       Cu471   2.018       .  S
O466        C476   1.279       .  A
O467       Cu472   2.012       .  S
O467        C476   1.277       .  A
O468       Cu472   2.015       .  S
O468        C475   1.279       .  A
O469       Cu472   2.008       .  S
O469        C474   1.277       .  A
O470       Cu472   2.014       .  S
O470        C473   1.278       .  A
Cu471      Cu472   2.373       .  S
C473       C1040   1.480       .  S
C474       C1022   1.479       .  S
C475       C1492   1.480       .  S
C476       C1096   1.480       .  S
O477       Cu485   2.010       .  S
O477        C487   1.277       .  A
O478       Cu485   2.009       .  S
O478        C488   1.277       .  A
O479       Cu485   2.030       .  S
O479        C489   1.280       .  A
O480       Cu485   2.032       .  S
O480        C490   1.280       .  A
O481       Cu486   2.006       .  S
O481        C490   1.277       .  A
O482       Cu486   2.004       .  S
O482        C489   1.276       .  A
O483       Cu486   2.025       .  S
O483        C488   1.280       .  A
O484       Cu486   2.023       .  S
O484        C487   1.280       .  A
Cu485      Cu486   2.372       .  S
C487       C1924   1.481       .  S
C488       C1004   1.480       .  S
C489       C1042   1.479       .  S
C490        C986   1.484       .  S
O491       Cu499   2.023       .  S
O491        C501   1.280       .  A
O492       Cu499   2.013       .  S
O492        C502   1.277       .  A
O493       Cu499   2.015       .  S
O493        C503   1.279       .  A
O494       Cu499   2.020       .  S
O494        C504   1.278       .  A
O495       Cu500   2.013       .  S
O495        C504   1.279       .  A
O496       Cu500   2.016       .  S
O496        C503   1.278       .  A
O497       Cu500   2.006       .  S
O497        C502   1.278       .  A
O498       Cu500   2.003       .  S
O498        C501   1.276       .  A
Cu499      Cu500   2.374       .  S
C501        C970   1.475       .  S
C502       C1078   1.477       .  S
C503       C1006   1.481       .  S
C504       C1960   1.480       .  S
O505       Cu513   2.001       .  S
O505        C515   1.276       .  A
O506       Cu513   2.005       .  S
O506        C516   1.278       .  A
O507       Cu513   2.022       .  S
O507        C517   1.280       .  A
O508       Cu513   2.025       .  S
O508        C518   1.280       .  A
O509       Cu514   2.005       .  S
O509        C518   1.276       .  A
O510       Cu514   2.008       .  S
O510        C517   1.277       .  A
O511       Cu514   2.026       .  S
O511        C516   1.279       .  A
O512       Cu514   2.021       .  S
O512        C515   1.280       .  A
Cu513      Cu514   2.373       .  S
C515       C2050   1.475       .  S
C516        C952   1.482       .  S
C517        C932   1.479       .  S
C518        C914   1.478       .  S
O519       Cu527   2.016       .  S
O519        C529   1.279       .  A
O520       Cu527   2.022       .  S
O520        C530   1.279       .  A
O521       Cu527   2.028       .  S
O521        C531   1.281       .  A
O522       Cu527   2.028       .  S
O522        C532   1.280       .  A
O523       Cu528   2.002       .  S
O523        C532   1.276       .  A
O524       Cu528   2.000       .  S
O524        C531   1.275       .  A
O525       Cu528   2.015       .  S
O525        C530   1.278       .  A
O526       Cu528   2.019       .  S
O526        C529   1.279       .  A
Cu527      Cu528   2.373       .  S
C529        C950   1.482       .  S
C530       C2014   1.480       .  S
C531        C878   1.476       .  S
C532        C896   1.478       .  S
O533       Cu541   2.022       .  S
O533        C543   1.280       .  A
O534       Cu541   2.022       .  S
O534        C544   1.280       .  A
O535       Cu541   2.009       .  S
O535        C545   1.277       .  A
O536       Cu541   2.012       .  S
O536        C546   1.278       .  A
O537       Cu542   2.023       .  S
O537        C546   1.279       .  A
O538       Cu542   2.023       .  S
O538        C545   1.280       .  A
O539       Cu542   2.004       .  S
O539        C544   1.276       .  A
O540       Cu542   2.002       .  S
O540        C543   1.276       .  A
Cu541      Cu542   2.373       .  S
C543        C860   1.476       .  S
C544       C1744   1.477       .  S
C545        C844   1.479       .  S
C546        C898   1.482       .  S
O547       Cu555   2.016       .  S
O547        C557   1.279       .  A
O548       Cu555   2.013       .  S
O548        C558   1.277       .  A
O549       Cu555   2.019       .  S
O549        C559   1.278       .  A
O550       Cu555   2.030       .  S
O550        C560   1.281       .  A
O551       Cu556   2.006       .  S
O551        C560   1.276       .  A
O552       Cu556   2.004       .  S
O552        C559   1.278       .  A
O553       Cu556   2.021       .  S
O553        C558   1.280       .  A
O554       Cu556   2.016       .  S
O554        C557   1.278       .  A
Cu555      Cu556   2.373       .  S
C557        C824   1.479       .  S
C558        C934   1.481       .  S
C559        C862   1.479       .  S
C560       C1780   1.480       .  S
O561       Cu569   1.997       .  S
O561        C571   1.277       .  A
O562       Cu569   1.998       .  S
O562        C572   1.275       .  A
O563       Cu569   2.035       .  S
O563        C573   1.282       .  A
O564       Cu569   2.040       .  S
O564        C574   1.282       .  A
O565       Cu570   1.996       .  S
O565        C574   1.275       .  A
O566       Cu570   1.999       .  S
O566        C573   1.275       .  A
O567       Cu570   2.022       .  S
O567        C572   1.280       .  A
O568       Cu570   2.026       .  S
O568        C571   1.280       .  A
Cu569      Cu570   2.373       .  S
C571        C790   1.479       .  S
C572       C1132   1.474       .  S
C573       C1348   1.479       .  S
C574        C808   1.480       .  S
O575       Cu583   2.032       .  S
O575        C585   1.281       .  A
O576       Cu583   2.026       .  S
O576        C586   1.279       .  A
O577       Cu583   1.999       .  S
O577        C587   1.277       .  A
O578       Cu583   2.002       .  S
O578        C588   1.276       .  A
O579       Cu584   2.025       .  S
O579        C588   1.280       .  A
O580       Cu584   2.028       .  S
O580        C587   1.280       .  A
O581       Cu584   2.006       .  S
O581        C586   1.278       .  A
O582       Cu584   2.006       .  S
O582        C585   1.276       .  A
Cu583      Cu584   2.372       .  S
C585        C806   1.482       .  S
C586       C1258   1.480       .  S
C587        C770   1.481       .  S
C588        C916   1.477       .  S
O589       Cu597   2.008       .  S
O589        C599   1.278       .  A
O590       Cu597   2.010       .  S
O590        C600   1.277       .  A
O591       Cu597   2.023       .  S
O591        C601   1.280       .  A
O592       Cu597   2.023       .  S
O592        C602   1.280       .  A
O593       Cu598   1.995       .  S
O593        C602   1.275       .  A
O594       Cu598   1.998       .  S
O594        C601   1.276       .  A
O595       Cu598   2.020       .  S
O595        C600   1.280       .  A
O596       Cu598   2.024       .  S
O596        C599   1.279       .  A
Cu597      Cu598   2.374       .  S
C599        C826   1.481       .  S
C600        C772   1.480       .  S
C601        C752   1.475       .  S
C602       C1060   1.472       .  S
O603       Cu611   2.015       .  S
O603        C613   1.279       .  A
O604       Cu611   2.019       .  S
O604        C614   1.278       .  A
O605       Cu611   2.004       .  S
O605        C615   1.276       .  A
O606       Cu611   2.001       .  S
O606        C616   1.276       .  A
O607       Cu612   2.018       .  S
O607        C616   1.279       .  A
O608       Cu612   2.020       .  S
O608        C615   1.280       .  A
O609       Cu612   2.005       .  S
O609        C614   1.278       .  A
O610       Cu612   2.009       .  S
O610        C613   1.277       .  A
Cu611      Cu612   2.374       .  S
C613        C754   1.478       .  S
C614        C968   1.479       .  S
C615        C788   1.476       .  S
C616       C1204   1.473       .  S
O617       Cu625   2.018       .  S
O617        C627   1.279       .  A
O618       Cu625   2.012       .  S
O618        C628   1.277       .  A
O619       Cu625   2.009       .  S
O619        C629   1.277       .  A
O620       Cu625   2.012       .  S
O620        C630   1.279       .  A
O621       Cu626   2.013       .  S
O621        C630   1.277       .  A
O622       Cu626   2.016       .  S
O622        C629   1.279       .  A
O623       Cu626   2.016       .  S
O623        C628   1.279       .  A
O624       Cu626   2.012       .  S
O624        C627   1.278       .  A
Cu625      Cu626   2.374       .  S
C627        C734   1.480       .  S
C628        C880   1.478       .  S
C629        C718   1.477       .  S
C630       C1276   1.477       .  S
O631       Cu639   2.006       .  S
O631        C641   1.277       .  A
O632       Cu639   2.011       .  S
O632        C642   1.277       .  A
O633       Cu639   2.019       .  S
O633        C643   1.279       .  A
O634       Cu639   2.024       .  S
O634        C644   1.279       .  A
O635       Cu640   2.007       .  S
O635        C644   1.278       .  A
O636       Cu640   2.007       .  S
O636        C643   1.277       .  A
O637       Cu640   2.024       .  S
O637        C642   1.280       .  A
O638       Cu640   2.029       .  S
O638        C641   1.280       .  A
Cu639      Cu640   2.373       .  S
C641        C842   1.480       .  S
C642        C736   1.481       .  S
C643        C698   1.478       .  S
C644       C1024   1.481       .  S
O645       Cu653   2.019       .  S
O645        C655   1.279       .  A
O646       Cu653   2.021       .  S
O646        C656   1.280       .  A
O647       Cu653   2.014       .  S
O647        C657   1.277       .  A
O648       Cu653   2.010       .  S
O648        C658   1.278       .  A
O649       Cu654   2.019       .  S
O649        C658   1.278       .  A
O650       Cu654   2.024       .  S
O650        C657   1.280       .  A
O651       Cu654   1.999       .  S
O651        C656   1.275       .  A
O652       Cu654   2.007       .  S
O652        C655   1.277       .  A
Cu653      Cu654   2.373       .  S
C655        C682   1.478       .  S
C656       C1166   1.474       .  S
C657        C988   1.480       .  S
C658        C700   1.480       .  S
O659       Cu667   2.016       .  S
O659        C669   1.279       .  A
O660       Cu667   2.017       .  S
O660        C670   1.278       .  A
O661       Cu667   2.013       .  S
O661        C671   1.279       .  A
O662       Cu667   2.011       .  S
O662        C672   1.277       .  A
O663       Cu668   2.014       .  S
O663        C672   1.279       .  A
O664       Cu668   2.006       .  S
O664        C671   1.276       .  A
O665       Cu668   2.009       .  S
O665        C670   1.279       .  A
O666       Cu668   2.013       .  S
O666        C669   1.277       .  A
Cu667      Cu668   2.374       .  S
C669       C1112   1.477       .  S
C670        C680   1.480       .  S
C671       C1312   1.475       .  S
C672        C716   1.479       .  S
C673        C681   1.493       .  S
C673        C674   1.405       .  A
C673        C678   1.409       .  A
C674        C675   1.401       .  A
C674        H683   1.083       .  S
C675        C676   1.409       .  A
C675        H684   1.081       .  S
C676        C679   1.491       .  S
C676        C677   1.403       .  A
C677        C678   1.397       .  A
C677        H685   1.083       .  S
C678        H686   1.080       .  S
C679        H687   1.087       .  S
C679        C680   1.348       .  D
C680        H688   1.083       .  S
C681        H689   1.087       .  S
C681        C682   1.348       .  D
C682        H690   1.082       .  S
C691        C699   1.488       .  S
C691        C692   1.403       .  A
C691        C696   1.407       .  A
C692        C693   1.398       .  A
C692        H701   1.083       .  S
C693        C694   1.409       .  A
C693        H702   1.080       .  S
C694        C697   1.492       .  S
C694        C695   1.405       .  A
C695        C696   1.401       .  A
C695        H703   1.083       .  S
C696        H704   1.082       .  S
C697        H705   1.087       .  S
C697        C698   1.348       .  D
C698        H706   1.083       .  S
C699        H707   1.087       .  S
C699        C700   1.348       .  D
C700        H708   1.085       .  S
C709        C717   1.490       .  S
C709        C710   1.404       .  A
C709        C714   1.408       .  A
C710        C711   1.400       .  A
C710        H719   1.083       .  S
C711        C712   1.409       .  A
C711        H720   1.081       .  S
C712        C715   1.490       .  S
C712        C713   1.404       .  A
C713        C714   1.398       .  A
C713        H721   1.083       .  S
C714        H722   1.081       .  S
C715        H723   1.087       .  S
C715        C716   1.347       .  D
C716        H724   1.084       .  S
C717        H725   1.087       .  S
C717        C718   1.347       .  D
C718        H726   1.084       .  S
C727        C735   1.493       .  S
C727        C728   1.404       .  A
C727        C732   1.409       .  A
C728        C729   1.400       .  A
C728        H737   1.083       .  S
C729        C730   1.410       .  A
C729        H738   1.080       .  S
C730        C733   1.496       .  S
C730        C731   1.405       .  A
C731        C732   1.400       .  A
C731        H739   1.083       .  S
C732        H740   1.081       .  S
C733        H741   1.087       .  S
C733        C734   1.349       .  D
C734        H742   1.082       .  S
C735        H743   1.087       .  S
C735        C736   1.348       .  D
C736        H744   1.084       .  S
C745        C753   1.489       .  S
C745        C746   1.403       .  A
C745        C750   1.409       .  A
C746        C747   1.397       .  A
C746        H755   1.084       .  S
C747        C748   1.407       .  A
C747        H756   1.082       .  S
C748        C751   1.488       .  S
C748        C749   1.403       .  A
C749        C750   1.400       .  A
C749        H757   1.083       .  S
C750        H758   1.081       .  S
C751        H759   1.087       .  S
C751        C752   1.345       .  D
C752        H760   1.085       .  S
C753        H761   1.087       .  S
C753        C754   1.346       .  D
C754        H762   1.084       .  S
C763        C771   1.493       .  S
C763        C764   1.403       .  A
C763        C768   1.411       .  A
C764        C765   1.397       .  A
C764        H773   1.083       .  S
C765        C766   1.403       .  A
C765        H774   1.083       .  S
C766        C769   1.489       .  S
C766        C767   1.407       .  A
C767        C768   1.402       .  A
C767        H775   1.081       .  S
C768        H776   1.080       .  S
C769        H777   1.087       .  S
C769        C770   1.349       .  D
C770        H778   1.084       .  S
C771        H779   1.087       .  S
C771        C772   1.347       .  D
C772        H780   1.083       .  S
C781        C789   1.489       .  S
C781        C782   1.405       .  A
C781        C786   1.407       .  A
C782        C783   1.399       .  A
C782        H791   1.083       .  S
C783        C784   1.402       .  A
C783        H792   1.083       .  S
C784        C787   1.488       .  S
C784        C785   1.408       .  A
C785        C786   1.399       .  A
C785        H793   1.081       .  S
C786        H794   1.080       .  S
C787        H795   1.087       .  S
C787        C788   1.346       .  D
C788        H796   1.085       .  S
C789        H797   1.087       .  S
C789        C790   1.350       .  D
C790        H798   1.084       .  S
C799        C807   1.498       .  S
C799        C800   1.404       .  A
C799        C804   1.410       .  A
C800        C801   1.403       .  A
C800        H809   1.084       .  S
C801        C802   1.412       .  A
C801        H810   1.079       .  S
C802        C805   1.498       .  S
C802        C803   1.404       .  A
C803        C804   1.399       .  A
C803        H811   1.084       .  S
C804        H812   1.080       .  S
C805        H813   1.087       .  S
C805        C806   1.348       .  D
C806        H814   1.082       .  S
C807        H815   1.087       .  S
C807        C808   1.347       .  D
C808        H816   1.083       .  S
C817        C825   1.487       .  S
C817        C818   1.403       .  A
C817        C822   1.407       .  A
C818        C819   1.398       .  A
C818        H827   1.083       .  S
C819        C820   1.406       .  A
C819        H828   1.082       .  S
C820        C823   1.488       .  S
C820        C821   1.405       .  A
C821        C822   1.402       .  A
C821        H829   1.083       .  S
C822        H830   1.083       .  S
C823        H831   1.087       .  S
C823        C824   1.347       .  D
C824        H832   1.086       .  S
C825        H833   1.087       .  S
C825        C826   1.347       .  D
C826        H834   1.085       .  S
C835        C843   1.488       .  S
C835        C836   1.403       .  A
C835        C840   1.408       .  A
C836        C837   1.400       .  A
C836        H845   1.083       .  S
C837        C838   1.408       .  A
C837        H846   1.083       .  S
C838        C841   1.490       .  S
C838        C839   1.404       .  A
C839        C840   1.401       .  A
C839        H847   1.083       .  S
C840        H848   1.083       .  S
C841        H849   1.086       .  S
C841        C842   1.346       .  D
C842        H850   1.086       .  S
C843        H851   1.087       .  S
C843        C844   1.346       .  D
C844        H852   1.086       .  S
C853        C861   1.488       .  S
C853        C854   1.403       .  A
C853        C858   1.408       .  A
C854        C855   1.397   1_554  A
C854        H863   1.084       .  S
C855        C856   1.408       .  A
C855        H864   1.081       .  S
C856        C859   1.490       .  S
C856        C857   1.404       .  A
C857        C858   1.401   1_556  A
C857        H865   1.084       .  S
C858        H866   1.081       .  S
C859        H867   1.087       .  S
C859        C860   1.346       .  D
C860        H868   1.085       .  S
C861        H869   1.087       .  S
C861        C862   1.348       .  D
C862        H870   1.084       .  S
C871        C879   1.487       .  S
C871        C872   1.403       .  A
C871        C876   1.408       .  A
C872        C873   1.399       .  A
C872        H881   1.083       .  S
C873        C874   1.407       .  A
C873        H882   1.083       .  S
C874        C877   1.485       .  S
C874        C875   1.402       .  A
C875        C876   1.400       .  A
C875        H883   1.083       .  S
C876        H884   1.082       .  S
C877        H885   1.086       .  S
C877        C878   1.343       .  D
C878        H886   1.086       .  S
C879        H887   1.087       .  S
C879        C880   1.346       .  D
C880        H888   1.085       .  S
C889        C897   1.491       .  S
C889        C890   1.404       .  A
C889        C894   1.409       .  A
C890        C891   1.398   1_655  A
C890        H899   1.083       .  S
C891        C892   1.408       .  A
C891        H900   1.082       .  S
C892        C895   1.492       .  S
C892        C893   1.404       .  A
C893        C894   1.402   1_455  A
C893        H901   1.083       .  S
C894        H902   1.081       .  S
C895        H903   1.087       .  S
C895        C896   1.347       .  D
C896        H904   1.085       .  S
C897        H905   1.087       .  S
C897        C898   1.348       .  D
C898        H906   1.084       .  S
C907        C915   1.487       .  S
C907        C908   1.403       .  A
C907        C912   1.408       .  A
C908        C909   1.400       .  A
C908        H917   1.083       .  S
C909        C910   1.407       .  A
C909        H918   1.083       .  S
C910        C913   1.486       .  S
C910        C911   1.402       .  A
C911        C912   1.399       .  A
C911        H919   1.083       .  S
C912        H920   1.083       .  S
C913        H921   1.086       .  S
C913        C914   1.344       .  D
C914        H922   1.086       .  S
C915        H923   1.086       .  S
C915        C916   1.345       .  D
C916        H924   1.086       .  S
C925        C933   1.492       .  S
C925        C926   1.403       .  A
C925        C930   1.408       .  A
C926        C927   1.400   1_655  A
C926        H935   1.084       .  S
C927        C928   1.410       .  A
C927        H936   1.080       .  S
C928        C931   1.494       .  S
C928        C929   1.405       .  A
C929        C930   1.401   1_455  A
C929        H937   1.083       .  S
C930        H938   1.081       .  S
C931        H939   1.087       .  S
C931        C932   1.348       .  D
C932        H940   1.083       .  S
C933        H941   1.087       .  S
C933        C934   1.348       .  D
C934        H942   1.085       .  S
C943        C951   1.494       .  S
C943        C944   1.405       .  A
C943        C948   1.408       .  A
C944        C945   1.400   1_554  A
C944        H953   1.083       .  S
C945        C946   1.409       .  A
C945        H954   1.080       .  S
C946        C949   1.496       .  S
C946        C947   1.406       .  A
C947        C948   1.401   1_556  A
C947        H955   1.083       .  S
C948        H956   1.080       .  S
C949        H957   1.087       .  S
C949        C950   1.350       .  D
C950        H958   1.082       .  S
C951        H959   1.087       .  S
C951        C952   1.350       .  D
C952        H960   1.083       .  S
C961        C969   1.486       .  S
C961        C962   1.404       .  A
C961        C966   1.406       .  A
C962        C963   1.402       .  A
C962        H971   1.083       .  S
C963        C964   1.409       .  A
C963        H972   1.082       .  S
C964        C967   1.487       .  S
C964        C965   1.403       .  A
C965        C966   1.396       .  A
C965        H973   1.083       .  S
C966        H974   1.082       .  S
C967        H975   1.087       .  S
C967        C968   1.347       .  D
C968        H976   1.085       .  S
C969        H977   1.087       .  S
C969        C970   1.345       .  D
C970        H978   1.086       .  S
C979        C987   1.489       .  S
C979        C980   1.404       .  A
C979        C984   1.406       .  A
C980        C981   1.402       .  A
C980        H989   1.083       .  S
C981        C982   1.408       .  A
C981        H990   1.082       .  S
C982        C985   1.491       .  S
C982        C983   1.405       .  A
C983        C984   1.401       .  A
C983        H991   1.083       .  S
C984        H992   1.083       .  S
C985        H993   1.087       .  S
C985        C986   1.350       .  D
C986        H994   1.085       .  S
C987        H995   1.087       .  S
C987        C988   1.346       .  D
C988        H996   1.086       .  S
C997       C1005   1.495       .  S
C997        C998   1.405       .  A
C997       C1002   1.410       .  A
C998        C999   1.400   1_554  A
C998       H1007   1.083       .  S
C999       C1000   1.409       .  A
C999       H1008   1.081       .  S
C1000      C1003   1.494       .  S
C1000      C1001   1.404       .  A
C1001      C1002   1.401   1_556  A
C1001      H1009   1.083       .  S
C1002      H1010   1.080       .  S
C1003      H1011   1.087       .  S
C1003      C1004   1.348       .  D
C1004      H1012   1.084       .  S
C1005      H1013   1.087       .  S
C1005      C1006   1.349       .  D
C1006      H1014   1.082       .  S
C1015      C1023   1.488       .  S
C1015      C1016   1.403       .  A
C1015      C1020   1.407       .  A
C1016      C1017   1.398       .  A
C1016      H1025   1.083       .  S
C1017      C1018   1.408       .  A
C1017      H1026   1.082       .  S
C1018      C1021   1.491       .  S
C1018      C1019   1.405       .  A
C1019      C1020   1.402       .  A
C1019      H1027   1.083       .  S
C1020      H1028   1.082       .  S
C1021      H1029   1.087       .  S
C1021      C1022   1.347       .  D
C1022      H1030   1.085       .  S
C1023      H1031   1.087       .  S
C1023      C1024   1.348       .  D
C1024      H1032   1.085       .  S
C1033      C1041   1.494       .  S
C1033      C1034   1.410       .  A
C1033      C1038   1.405       .  A
C1034      C1035   1.399   1_545  A
C1034      H1043   1.081       .  S
C1035      C1036   1.407       .  A
C1035      H1044   1.081       .  S
C1036      C1039   1.491       .  S
C1036      C1037   1.404       .  A
C1037      C1038   1.401   1_565  A
C1037      H1045   1.084       .  S
C1038      H1046   1.083       .  S
C1039      H1047   1.087       .  S
C1039      C1040   1.348       .  D
C1040      H1048   1.085       .  S
C1041      H1049   1.087       .  S
C1041      C1042   1.347       .  D
C1042      H1050   1.084       .  S
C1051      C1059   1.483       .  S
C1051      C1052   1.402       .  A
C1051      C1056   1.406       .  A
C1052      C1053   1.400       .  A
C1052      H1061   1.083       .  S
C1053      C1054   1.408       .  A
C1053      H1062   1.082       .  S
C1054      C1057   1.484       .  S
C1054      C1055   1.403       .  A
C1055      C1056   1.396       .  A
C1055      H1063   1.083       .  S
C1056      H1064   1.083       .  S
C1057      H1065   1.087       .  S
C1057      C1058   1.346       .  D
C1058      H1066   1.085       .  S
C1059      H1067   1.086       .  S
C1059      C1060   1.343       .  D
C1060      H1068   1.086       .  S
C1069      C1077   1.487       .  S
C1069      C1070   1.403       .  A
C1069      C1074   1.408       .  A
C1070      C1071   1.397       .  A
C1070      H1079   1.084       .  S
C1071      C1072   1.409   1_545  A
C1071      H1080   1.080   1_545  S
C1072      C1075   1.490       .  S
C1072      C1073   1.404   1_565  A
C1073      C1074   1.399       .  A
C1073      H1081   1.083       .  S
C1074      H1082   1.081       .  S
C1075      H1083   1.087       .  S
C1075      C1076   1.347       .  D
C1076      H1084   1.083       .  S
C1077      H1085   1.087       .  S
C1077      C1078   1.347       .  D
C1078      H1086   1.084       .  S
C1087      C1095   1.493       .  S
C1087      C1088   1.404       .  A
C1087      C1092   1.410       .  A
C1088      C1089   1.399   1_556  A
C1088      H1097   1.084       .  S
C1089      C1090   1.408       .  A
C1089      H1098   1.081       .  S
C1090      C1093   1.489       .  S
C1090      C1091   1.403       .  A
C1091      C1092   1.400   1_554  A
C1091      H1099   1.084       .  S
C1092      H1100   1.080       .  S
C1093      H1101   1.087       .  S
C1093      C1094   1.346       .  D
C1094      H1102   1.085       .  S
C1095      H1103   1.087       .  S
C1095      C1096   1.348       .  D
C1096      H1104   1.083       .  S
C1105      C1113   1.486       .  S
C1105      C1106   1.403       .  A
C1105      C1110   1.408       .  A
C1106      C1107   1.399       .  A
C1106      H1115   1.083       .  S
C1107      C1108   1.406       .  A
C1107      H1116   1.083       .  S
C1108      C1111   1.485       .  S
C1108      C1109   1.403       .  A
C1109      C1110   1.400       .  A
C1109      H1117   1.083       .  S
C1110      H1118   1.082       .  S
C1111      H1119   1.087       .  S
C1111      C1112   1.346       .  D
C1112      H1120   1.086       .  S
C1113      H1121   1.087       .  S
C1113      C1114   1.347       .  D
C1114      H1122   1.085       .  S
C1123      C1131   1.484       .  S
C1123      C1124   1.403       .  A
C1123      C1128   1.407       .  A
C1124      C1125   1.401       .  A
C1124      H1133   1.083       .  S
C1125      C1126   1.408       .  A
C1125      H1134   1.083       .  S
C1126      C1129   1.484       .  S
C1126      C1127   1.402       .  A
C1127      C1128   1.397       .  A
C1127      H1135   1.083       .  S
C1128      H1136   1.083       .  S
C1129      H1137   1.087       .  S
C1129      C1130   1.344       .  D
C1130      H1138   1.086       .  S
C1131      H1139   1.086       .  S
C1131      C1132   1.344       .  D
C1132      H1140   1.086       .  S
C1141      C1149   1.491       .  S
C1141      C1142   1.403       .  A
C1141      C1146   1.409       .  A
C1142      C1143   1.399       .  A
C1142      H1151   1.083       .  S
C1143      C1144   1.408   1_556  A
C1143      H1152   1.081   1_556  S
C1144      C1147   1.492       .  S
C1144      C1145   1.405   1_554  A
C1145      C1146   1.401       .  A
C1145      H1153   1.083   1_556  S
C1146      H1154   1.081       .  S
C1147      H1155   1.087       .  S
C1147      C1148   1.347       .  D
C1148      H1156   1.084       .  S
C1149      H1157   1.087       .  S
C1149      C1150   1.347       .  D
C1150      H1158   1.084       .  S
C1159      C1167   1.485       .  S
C1159      C1160   1.403       .  A
C1159      C1164   1.408       .  A
C1160      C1161   1.397       .  A
C1160      H1169   1.083       .  S
C1161      C1162   1.406       .  A
C1161      H1170   1.083       .  S
C1162      C1165   1.483       .  S
C1162      C1163   1.402       .  A
C1163      C1164   1.400       .  A
C1163      H1171   1.083       .  S
C1164      H1172   1.082       .  S
C1165      H1173   1.087       .  S
C1165      C1166   1.343       .  D
C1166      H1174   1.086       .  S
C1167      H1175   1.087       .  S
C1167      C1168   1.345       .  D
C1168      H1176   1.085       .  S
C1177      C1185   1.488       .  S
C1177      C1178   1.404       .  A
C1177      C1182   1.407       .  A
C1178      C1179   1.400   1_455  A
C1178      H1187   1.083       .  S
C1179      C1180   1.409       .  A
C1179      H1188   1.080       .  S
C1180      C1183   1.491       .  S
C1180      C1181   1.404       .  A
C1181      C1182   1.397   1_655  A
C1181      H1189   1.083       .  S
C1182      H1190   1.081       .  S
C1183      H1191   1.087       .  S
C1183      C1184   1.347       .  D
C1184      H1192   1.083       .  S
C1185      H1193   1.087       .  S
C1185      C1186   1.347       .  D
C1186      H1194   1.084       .  S
C1195      C1203   1.483       .  S
C1195      C1196   1.403       .  A
C1195      C1200   1.406       .  A
C1196      C1197   1.400       .  A
C1196      H1205   1.083       .  S
C1197      C1198   1.408       .  A
C1197      H1206   1.082       .  S
C1198      C1201   1.486       .  S
C1198      C1199   1.403       .  A
C1199      C1200   1.397       .  A
C1199      H1207   1.083       .  S
C1200      H1208   1.083       .  S
C1201      H1209   1.087       .  S
C1201      C1202   1.346       .  D
C1202      H1210   1.085       .  S
C1203      H1211   1.087       .  S
C1203      C1204   1.344       .  D
C1204      H1212   1.086       .  S
C1213      C1221   1.492       .  S
C1213      C1214   1.405       .  A
C1213      C1218   1.409       .  A
C1214      C1215   1.400   1_455  A
C1214      H1223   1.083       .  S
C1215      C1216   1.407       .  A
C1215      H1224   1.082       .  S
C1216      C1219   1.490       .  S
C1216      C1217   1.404       .  A
C1217      C1218   1.400   1_655  A
C1217      H1225   1.083       .  S
C1218      H1226   1.081       .  S
C1219      H1227   1.087       .  S
C1219      C1220   1.348       .  D
C1220      H1228   1.084       .  S
C1221      H1229   1.087       .  S
C1221      C1222   1.348       .  D
C1222      H1230   1.083       .  S
C1231      C1239   1.492       .  S
C1231      C1232   1.404       .  A
C1231      C1236   1.410       .  A
C1232      C1233   1.398   1_556  A
C1232      H1241   1.083       .  S
C1233      C1234   1.408       .  A
C1233      H1242   1.081       .  S
C1234      C1237   1.492       .  S
C1234      C1235   1.404       .  A
C1235      C1236   1.402   1_554  A
C1235      H1243   1.083       .  S
C1236      H1244   1.081       .  S
C1237      H1245   1.087       .  S
C1237      C1238   1.347       .  D
C1238      H1246   1.084       .  S
C1239      H1247   1.087       .  S
C1239      C1240   1.348       .  D
C1240      H1248   1.084       .  S
C1249      C1257   1.487       .  S
C1249      C1250   1.404       .  A
C1249      C1254   1.406       .  A
C1250      C1251   1.399       .  A
C1250      H1259   1.083       .  S
C1251      C1252   1.407       .  A
C1251      H1260   1.082       .  S
C1252      C1255   1.489       .  S
C1252      C1253   1.405       .  A
C1253      C1254   1.401       .  A
C1253      H1261   1.083       .  S
C1254      H1262   1.083       .  S
C1255      H1263   1.087       .  S
C1255      C1256   1.347       .  D
C1256      H1264   1.085       .  S
C1257      H1265   1.087       .  S
C1257      C1258   1.348       .  D
C1258      H1266   1.085       .  S
C1267      C1275   1.485       .  S
C1267      C1268   1.403       .  A
C1267      C1272   1.407       .  A
C1268      C1269   1.399       .  A
C1268      H1277   1.083       .  S
C1269      C1270   1.407       .  A
C1269      H1278   1.083       .  S
C1270      C1273   1.485       .  S
C1270      C1271   1.403       .  A
C1271      C1272   1.399       .  A
C1271      H1279   1.083       .  S
C1272      H1280   1.083       .  S
C1273      H1281   1.087       .  S
C1273      C1274   1.346       .  D
C1274      H1282   1.085       .  S
C1275      H1283   1.087       .  S
C1275      C1276   1.345       .  D
C1276      H1284   1.086       .  S
C1285      C1293   1.492       .  S
C1285      C1286   1.405       .  A
C1285      C1290   1.407       .  A
C1286      C1287   1.402       .  A
C1286      H1295   1.083       .  S
C1287      C1288   1.408   1_554  A
C1287      H1296   1.080   1_554  S
C1288      C1291   1.491       .  S
C1288      C1289   1.405       .  A
C1289      C1290   1.397   1_556  A
C1289      H1297   1.083       .  S
C1290      H1298   1.081       .  S
C1291      H1299   1.087       .  S
C1291      C1292   1.350       .  D
C1292      H1300   1.083       .  S
C1293      H1301   1.087       .  S
C1293      C1294   1.348       .  D
C1294      H1302   1.084       .  S
C1303      C1311   1.482       .  S
C1303      C1304   1.401       .  A
C1303      C1308   1.407       .  A
C1304      C1305   1.397       .  A
C1304      H1313   1.083       .  S
C1305      C1306   1.407       .  A
C1305      H1314   1.083       .  S
C1306      C1309   1.483       .  S
C1306      C1307   1.402       .  A
C1307      C1308   1.399       .  A
C1307      H1315   1.083       .  S
C1308      H1316   1.083       .  S
C1309      H1317   1.086       .  S
C1309      C1310   1.343       .  D
C1310      H1318   1.086       .  S
C1311      H1319   1.087       .  S
C1311      C1312   1.344       .  D
C1312      H1320   1.086       .  S
C1321      C1329   1.487       .  S
C1321      C1322   1.403       .  A
C1321      C1326   1.407       .  A
C1322      C1323   1.401       .  A
C1322      H1331   1.083       .  S
C1323      C1324   1.409   1_545  A
C1323      H1332   1.081   1_545  S
C1324      C1327   1.486       .  S
C1324      C1325   1.402   1_565  A
C1325      C1326   1.395       .  A
C1325      H1333   1.084   1_545  S
C1326      H1334   1.082       .  S
C1327      H1335   1.087       .  S
C1327      C1328   1.345       .  D
C1328      H1336   1.084       .  S
C1329      H1337   1.087       .  S
C1329      C1330   1.345       .  D
C1330      H1338   1.085       .  S
C1339      C1347   1.488       .  S
C1339      C1340   1.402       .  A
C1339      C1344   1.408       .  A
C1340      C1341   1.399       .  A
C1340      H1349   1.083       .  S
C1341      C1342   1.407       .  A
C1341      H1350   1.083       .  S
C1342      C1345   1.487       .  S
C1342      C1343   1.404       .  A
C1343      C1344   1.401       .  A
C1343      H1351   1.083       .  S
C1344      H1352   1.083       .  S
C1345      H1353   1.087       .  S
C1345      C1346   1.345       .  D
C1346      H1354   1.086       .  S
C1347      H1355   1.086       .  S
C1347      C1348   1.344       .  D
C1348      H1356   1.086       .  S
C1357      C1365   1.490       .  S
C1357      C1358   1.404       .  A
C1357      C1362   1.408       .  A
C1358      C1359   1.400   1_565  A
C1358      H1367   1.083       .  S
C1359      C1360   1.409       .  A
C1359      H1368   1.080       .  S
C1360      C1363   1.492       .  S
C1360      C1361   1.404       .  A
C1361      C1362   1.399   1_545  A
C1361      H1369   1.083       .  S
C1362      H1370   1.081       .  S
C1363      H1371   1.087       .  S
C1363      C1364   1.347       .  D
C1364      H1372   1.084       .  S
C1365      H1373   1.087       .  S
C1365      C1366   1.347       .  D
C1366      H1374   1.084       .  S
C1375      C1383   1.490       .  S
C1375      C1376   1.402       .  A
C1375      C1380   1.409       .  A
C1376      C1377   1.398   1_556  A
C1376      H1385   1.084       .  S
C1377      C1378   1.410       .  A
C1377      H1386   1.080       .  S
C1378      C1381   1.492       .  S
C1378      C1379   1.403       .  A
C1379      C1380   1.400   1_554  A
C1379      H1387   1.084       .  S
C1380      H1388   1.081       .  S
C1381      H1389   1.087       .  S
C1381      C1382   1.346       .  D
C1382      H1390   1.084       .  S
C1383      H1391   1.087       .  S
C1383      C1384   1.345       .  D
C1384      H1392   1.084       .  S
C1393      C1401   1.489       .  S
C1393      C1394   1.402       .  A
C1393      C1398   1.409       .  A
C1394      C1395   1.396   1_545  A
C1394      H1403   1.083       .  S
C1395      C1396   1.408       .  A
C1395      H1404   1.081       .  S
C1396      C1399   1.494       .  S
C1396      C1397   1.407       .  A
C1397      C1398   1.406   1_565  A
C1397      H1405   1.083       .  S
C1398      H1406   1.082       .  S
C1399      H1407   1.087       .  S
C1399      C1400   1.348       .  D
C1400      H1408   1.085       .  S
C1401      H1409   1.087       .  S
C1401      C1402   1.347       .  D
C1402      H1410   1.085       .  S
C1411      C1419   1.495       .  S
C1411      C1412   1.405       .  A
C1411      C1416   1.410       .  A
C1412      C1413   1.398   1_455  A
C1412      H1421   1.083       .  S
C1413      C1414   1.407       .  A
C1413      H1422   1.081       .  S
C1414      C1417   1.493       .  S
C1414      C1415   1.405       .  A
C1415      C1416   1.402   1_655  A
C1415      H1423   1.083       .  S
C1416      H1424   1.080       .  S
C1417      H1425   1.087       .  S
C1417      C1418   1.348       .  D
C1418      H1426   1.084       .  S
C1419      H1427   1.087       .  S
C1419      C1420   1.349       .  D
C1420      H1428   1.083       .  S
C1429      C1437   1.491       .  S
C1429      C1430   1.405       .  A
C1429      C1434   1.409       .  A
C1430      C1431   1.401   1_655  A
C1430      H1439   1.083       .  S
C1431      C1432   1.408       .  A
C1431      H1440   1.082       .  S
C1432      C1435   1.488       .  S
C1432      C1433   1.403       .  A
C1433      C1434   1.398   1_455  A
C1433      H1441   1.084       .  S
C1434      H1442   1.081       .  S
C1435      H1443   1.087       .  S
C1435      C1436   1.346       .  D
C1436      H1444   1.085       .  S
C1437      H1445   1.087       .  S
C1437      C1438   1.347       .  D
C1438      H1446   1.084       .  S
C1447      C1455   1.491       .  S
C1447      C1448   1.403   1_545  A
C1447      C1452   1.408   1_545  A
C1448      C1449   1.399       .  A
C1448      H1457   1.083   1_565  S
C1449      C1450   1.409       .  A
C1449      H1458   1.080       .  S
C1450      C1453   1.494       .  S
C1450      C1451   1.405       .  A
C1451      C1452   1.401       .  A
C1451      H1459   1.083       .  S
C1452      H1460   1.081   1_565  S
C1453      H1461   1.087       .  S
C1453      C1454   1.348       .  D
C1454      H1462   1.084       .  S
C1455      H1463   1.087       .  S
C1455      C1456   1.348       .  D
C1456      H1464   1.084       .  S
C1465      C1473   1.486       .  S
C1465      C1466   1.404       .  A
C1465      C1470   1.407       .  A
C1466      C1467   1.401       .  A
C1466      H1475   1.083       .  S
C1467      C1468   1.408       .  A
C1467      H1476   1.083       .  S
C1468      C1471   1.486       .  S
C1468      C1469   1.402       .  A
C1469      C1470   1.397       .  A
C1469      H1477   1.083       .  S
C1470      H1478   1.083       .  S
C1471      H1479   1.087       .  S
C1471      C1472   1.345       .  D
C1472      H1480   1.086       .  S
C1473      H1481   1.086       .  S
C1473      C1474   1.345       .  D
C1474      H1482   1.086       .  S
C1483      C1491   1.487       .  S
C1483      C1484   1.403       .  A
C1483      C1488   1.407       .  A
C1484      C1485   1.401       .  A
C1484      H1493   1.083       .  S
C1485      C1486   1.407       .  A
C1485      H1494   1.083       .  S
C1486      C1489   1.488       .  S
C1486      C1487   1.404       .  A
C1487      C1488   1.401       .  A
C1487      H1495   1.083       .  S
C1488      H1496   1.083       .  S
C1489      H1497   1.087       .  S
C1489      C1490   1.347       .  D
C1490      H1498   1.086       .  S
C1491      H1499   1.087       .  S
C1491      C1492   1.346       .  D
C1492      H1500   1.086       .  S
C1501      C1509   1.489       .  S
C1501      C1502   1.404       .  A
C1501      C1506   1.408       .  A
C1502      C1503   1.401       .  A
C1502      H1511   1.083       .  S
C1503      C1504   1.407       .  A
C1503      H1512   1.083       .  S
C1504      C1507   1.486       .  S
C1504      C1505   1.403       .  A
C1505      C1506   1.400       .  A
C1505      H1513   1.083       .  S
C1506      H1514   1.083       .  S
C1507      H1515   1.087       .  S
C1507      C1508   1.346       .  D
C1508      H1516   1.086       .  S
C1509      H1517   1.086       .  S
C1509      C1510   1.346       .  D
C1510      H1518   1.086       .  S
C1519      C1527   1.493       .  S
C1519      C1520   1.405       .  A
C1519      C1524   1.408       .  A
C1520      C1521   1.401       .  A
C1520      H1529   1.083       .  S
C1521      C1522   1.408       .  A
C1521      H1530   1.081       .  S
C1522      C1525   1.492       .  S
C1522      C1523   1.405       .  A
C1523      C1524   1.400       .  A
C1523      H1531   1.084       .  S
C1524      H1532   1.081       .  S
C1525      H1533   1.087       .  S
C1525      C1526   1.349       .  D
C1526      H1534   1.084       .  S
C1527      H1535   1.087       .  S
C1527      C1528   1.348       .  D
C1528      H1536   1.084       .  S
C1537      C1545   1.488       .  S
C1537      C1538   1.404       .  A
C1537      C1542   1.407       .  A
C1538      C1539   1.403       .  A
C1538      H1547   1.083       .  S
C1539      C1540   1.408       .  A
C1539      H1548   1.082       .  S
C1540      C1543   1.486       .  S
C1540      C1541   1.402       .  A
C1541      C1542   1.397       .  A
C1541      H1549   1.083       .  S
C1542      H1550   1.083       .  S
C1543      H1551   1.087       .  S
C1543      C1544   1.346       .  D
C1544      H1552   1.085       .  S
C1545      H1553   1.086       .  S
C1545      C1546   1.345       .  D
C1546      H1554   1.086       .  S
C1555      C1563   1.489       .  S
C1555      C1556   1.402       .  A
C1555      C1560   1.410       .  A
C1556      C1557   1.398       .  A
C1556      H1565   1.083       .  S
C1557      C1558   1.407       .  A
C1557      H1566   1.083       .  S
C1558      C1561   1.487       .  S
C1558      C1559   1.403       .  A
C1559      C1560   1.402       .  A
C1559      H1567   1.083       .  S
C1560      H1568   1.082       .  S
C1561      H1569   1.086       .  S
C1561      C1562   1.345       .  D
C1562      H1570   1.086       .  S
C1563      H1571   1.087       .  S
C1563      C1564   1.345       .  D
C1564      H1572   1.085       .  S
C1573      C1581   1.494       .  S
C1573      C1574   1.404       .  A
C1573      C1578   1.411       .  A
C1574      C1575   1.398       .  A
C1574      H1583   1.083       .  S
C1575      C1576   1.408       .  A
C1575      H1584   1.081       .  S
C1576      C1579   1.493       .  S
C1576      C1577   1.404       .  A
C1577      C1578   1.402       .  A
C1577      H1585   1.083       .  S
C1578      H1586   1.080       .  S
C1579      H1587   1.087       .  S
C1579      C1580   1.347       .  D
C1580      H1588   1.084       .  S
C1581      H1589   1.087       .  S
C1581      C1582   1.347       .  D
C1582      H1590   1.083       .  S
C1591      C1599   1.491       .  S
C1591      C1592   1.404       .  A
C1591      C1596   1.408       .  A
C1592      C1593   1.402       .  A
C1592      H1601   1.083       .  S
C1593      C1594   1.408       .  A
C1593      H1602   1.082       .  S
C1594      C1597   1.490       .  S
C1594      C1595   1.404       .  A
C1595      C1596   1.400       .  A
C1595      H1603   1.083       .  S
C1596      H1604   1.082       .  S
C1597      H1605   1.087       .  S
C1597      C1598   1.348       .  D
C1598      H1606   1.085       .  S
C1599      H1607   1.087       .  S
C1599      C1600   1.347       .  D
C1600      H1608   1.085       .  S
C1609      C1617   1.489       .  S
C1609      C1610   1.405       .  A
C1609      C1614   1.408       .  A
C1610      C1611   1.399       .  A
C1610      H1619   1.083       .  S
C1611      C1612   1.407       .  A
C1611      H1620   1.080       .  S
C1612      C1615   1.486       .  S
C1612      C1613   1.403       .  A
C1613      C1614   1.395       .  A
C1613      H1621   1.083       .  S
C1614      H1622   1.079       .  S
C1615      H1623   1.087       .  S
C1615      C1616   1.348       .  D
C1616      H1624   1.083       .  S
C1617      H1625   1.087       .  S
C1617      C1618   1.348       .  D
C1618      H1626   1.082       .  S
C1627      C1635   1.490       .  S
C1627      C1628   1.403       .  A
C1627      C1632   1.408       .  A
C1628      C1629   1.400       .  A
C1628      H1637   1.083       .  S
C1629      C1630   1.410       .  A
C1629      H1638   1.081       .  S
C1630      C1633   1.493       .  S
C1630      C1631   1.404       .  A
C1631      C1632   1.400       .  A
C1631      H1639   1.083       .  S
C1632      H1640   1.082       .  S
C1633      H1641   1.087       .  S
C1633      C1634   1.347       .  D
C1634      H1642   1.084       .  S
C1635      H1643   1.087       .  S
C1635      C1636   1.345       .  D
C1636      H1644   1.085       .  S
C1645      C1653   1.485       .  S
C1645      C1646   1.402       .  A
C1645      C1650   1.408       .  A
C1646      C1647   1.397       .  A
C1646      H1655   1.083       .  S
C1647      C1648   1.407       .  A
C1647      H1656   1.083       .  S
C1648      C1651   1.485       .  S
C1648      C1649   1.404       .  A
C1649      C1650   1.401       .  A
C1649      H1657   1.083       .  S
C1650      H1658   1.083       .  S
C1651      H1659   1.087       .  S
C1651      C1652   1.345       .  D
C1652      H1660   1.086       .  S
C1653      H1661   1.087       .  S
C1653      C1654   1.346       .  D
C1654      H1662   1.086       .  S
C1663      C1671   1.488       .  S
C1663      C1664   1.404       .  A
C1663      C1668   1.407       .  A
C1664      C1665   1.400       .  A
C1664      H1673   1.083       .  S
C1665      C1666   1.408       .  A
C1665      H1674   1.082       .  S
C1666      C1669   1.489       .  S
C1666      C1667   1.404       .  A
C1667      C1668   1.400       .  A
C1667      H1675   1.083       .  S
C1668      H1676   1.082       .  S
C1669      H1677   1.087       .  S
C1669      C1670   1.347       .  D
C1670      H1678   1.085       .  S
C1671      H1679   1.087       .  S
C1671      C1672   1.347       .  D
C1672      H1680   1.085       .  S
C1681      C1689   1.487       .  S
C1681      C1682   1.404       .  A
C1681      C1686   1.407       .  A
C1682      C1683   1.402       .  A
C1682      H1691   1.083       .  S
C1683      C1684   1.407       .  A
C1683      H1692   1.083       .  S
C1684      C1687   1.484       .  S
C1684      C1685   1.402       .  A
C1685      C1686   1.397       .  A
C1685      H1693   1.083       .  S
C1686      H1694   1.082       .  S
C1687      H1695   1.087       .  S
C1687      C1688   1.346       .  D
C1688      H1696   1.085       .  S
C1689      H1697   1.086       .  S
C1689      C1690   1.345       .  D
C1690      H1698   1.086       .  S
C1699      C1707   1.489       .  S
C1699      C1700   1.404       .  A
C1699      C1704   1.408       .  A
C1700      C1701   1.400       .  A
C1700      H1709   1.083       .  S
C1701      C1702   1.408       .  A
C1701      H1710   1.081       .  S
C1702      C1705   1.489       .  S
C1702      C1703   1.403       .  A
C1703      C1704   1.397       .  A
C1703      H1711   1.084       .  S
C1704      H1712   1.081       .  S
C1705      H1713   1.087       .  S
C1705      C1706   1.348       .  D
C1706      H1714   1.084       .  S
C1707      H1715   1.087       .  S
C1707      C1708   1.346       .  D
C1708      H1716   1.084       .  S
C1717      C1725   1.488       .  S
C1717      C1718   1.404       .  A
C1717      C1722   1.407       .  A
C1718      C1719   1.400       .  A
C1718      H1727   1.083       .  S
C1719      C1720   1.407       .  A
C1719      H1728   1.082       .  S
C1720      C1723   1.489       .  S
C1720      C1721   1.405       .  A
C1721      C1722   1.401       .  A
C1721      H1729   1.083       .  S
C1722      H1730   1.082       .  S
C1723      H1731   1.087       .  S
C1723      C1724   1.347       .  D
C1724      H1732   1.085       .  S
C1725      H1733   1.087       .  S
C1725      C1726   1.349       .  D
C1726      H1734   1.085       .  S
C1735      C1743   1.487       .  S
C1735      C1736   1.403       .  A
C1735      C1740   1.408       .  A
C1736      C1737   1.400       .  A
C1736      H1745   1.083       .  S
C1737      C1738   1.408       .  A
C1737      H1746   1.082       .  S
C1738      C1741   1.487       .  S
C1738      C1739   1.403       .  A
C1739      C1740   1.399       .  A
C1739      H1747   1.083       .  S
C1740      H1748   1.082       .  S
C1741      H1749   1.087       .  S
C1741      C1742   1.345       .  D
C1742      H1750   1.086       .  S
C1743      H1751   1.087       .  S
C1743      C1744   1.345       .  D
C1744      H1752   1.085       .  S
C1753      C1761   1.490       .  S
C1753      C1754   1.403       .  A
C1753      C1758   1.409       .  A
C1754      C1755   1.397       .  A
C1754      H1763   1.083       .  S
C1755      C1756   1.408       .  A
C1755      H1764   1.081       .  S
C1756      C1759   1.493       .  S
C1756      C1757   1.406       .  A
C1757      C1758   1.403       .  A
C1757      H1765   1.083       .  S
C1758      H1766   1.081       .  S
C1759      H1767   1.087       .  S
C1759      C1760   1.349       .  D
C1760      H1768   1.084       .  S
C1761      H1769   1.087       .  S
C1761      C1762   1.348       .  D
C1762      H1770   1.084       .  S
C1771      C1779   1.488       .  S
C1771      C1772   1.403       .  A
C1771      C1776   1.408       .  A
C1772      C1773   1.401       .  A
C1772      H1781   1.083       .  S
C1773      C1774   1.408       .  A
C1773      H1782   1.083       .  S
C1774      C1777   1.489       .  S
C1774      C1775   1.404       .  A
C1775      C1776   1.401       .  A
C1775      H1783   1.083       .  S
C1776      H1784   1.083       .  S
C1777      H1785   1.086       .  S
C1777      C1778   1.346       .  D
C1778      H1786   1.086       .  S
C1779      H1787   1.086       .  S
C1779      C1780   1.345       .  D
C1780      H1788   1.086       .  S
C1789      C1797   1.494       .  S
C1789      C1790   1.404       .  A
C1789      C1794   1.410       .  A
C1790      C1791   1.400       .  A
C1790      H1799   1.083       .  S
C1791      C1792   1.409       .  A
C1791      H1800   1.082       .  S
C1792      C1795   1.494       .  S
C1792      C1793   1.405       .  A
C1793      C1794   1.403       .  A
C1793      H1801   1.083       .  S
C1794      H1802   1.082       .  S
C1795      H1803   1.087       .  S
C1795      C1796   1.347       .  D
C1796      H1804   1.085       .  S
C1797      H1805   1.087       .  S
C1797      C1798   1.348       .  D
C1798      H1806   1.084       .  S
C1807      C1815   1.499       .  S
C1807      C1808   1.408       .  A
C1807      C1812   1.409       .  A
C1808      C1809   1.404       .  A
C1808      H1817   1.083       .  S
C1809      C1810   1.408       .  A
C1809      H1818   1.081       .  S
C1810      C1813   1.492       .  S
C1810      C1811   1.403       .  A
C1811      C1812   1.398       .  A
C1811      H1819   1.083       .  S
C1812      H1820   1.079       .  S
C1813      H1821   1.087       .  S
C1813      C1814   1.349       .  D
C1814      H1822   1.084       .  S
C1815      H1823   1.086       .  S
C1815      C1816   1.351       .  D
C1816      H1824   1.081       .  S
C1825      C1833   1.487       .  S
C1825      C1826   1.404       .  A
C1825      C1830   1.407       .  A
C1826      C1827   1.401       .  A
C1826      H1835   1.083       .  S
C1827      C1828   1.407       .  A
C1827      H1836   1.082       .  S
C1828      C1831   1.485       .  S
C1828      C1829   1.403       .  A
C1829      C1830   1.397       .  A
C1829      H1837   1.083       .  S
C1830      H1838   1.082       .  S
C1831      H1839   1.087       .  S
C1831      C1832   1.347       .  D
C1832      H1840   1.085       .  S
C1833      H1841   1.087       .  S
C1833      C1834   1.346       .  D
C1834      H1842   1.085       .  S
C1843      C1851   1.487       .  S
C1843      C1844   1.403       .  A
C1843      C1848   1.408       .  A
C1844      C1845   1.399       .  A
C1844      H1853   1.083       .  S
C1845      C1846   1.407       .  A
C1845      H1854   1.083       .  S
C1846      C1849   1.486       .  S
C1846      C1847   1.403       .  A
C1847      C1848   1.401       .  A
C1847      H1855   1.083       .  S
C1848      H1856   1.083       .  S
C1849      H1857   1.087       .  S
C1849      C1850   1.346       .  D
C1850      H1858   1.086       .  S
C1851      H1859   1.087       .  S
C1851      C1852   1.346       .  D
C1852      H1860   1.086       .  S
C1861      C1869   1.486       .  S
C1861      C1862   1.403       .  A
C1861      C1866   1.407       .  A
C1862      C1863   1.397       .  A
C1862      H1871   1.083       .  S
C1863      C1864   1.407       .  A
C1863      H1872   1.082       .  S
C1864      C1867   1.489       .  S
C1864      C1865   1.405       .  A
C1865      C1866   1.402       .  A
C1865      H1873   1.083       .  S
C1866      H1874   1.082       .  S
C1867      H1875   1.087       .  S
C1867      C1868   1.346       .  D
C1868      H1876   1.085       .  S
C1869      H1877   1.087       .  S
C1869      C1870   1.347       .  D
C1870      H1878   1.085       .  S
C1879      C1887   1.486       .  S
C1879      C1880   1.403       .  A
C1879      C1884   1.407       .  A
C1880      C1881   1.400       .  A
C1880      H1889   1.083       .  S
C1881      C1882   1.409       .  A
C1881      H1890   1.081       .  S
C1882      C1885   1.488       .  S
C1882      C1883   1.404       .  A
C1883      C1884   1.397       .  A
C1883      H1891   1.083       .  S
C1884      H1892   1.082       .  S
C1885      H1893   1.087       .  S
C1885      C1886   1.347       .  D
C1886      H1894   1.083       .  S
C1887      H1895   1.086       .  S
C1887      C1888   1.345       .  D
C1888      H1896   1.085       .  S
C1897      C1905   1.491       .  S
C1897      C1898   1.403       .  A
C1897      C1902   1.409       .  A
C1898      C1899   1.399       .  A
C1898      H1907   1.083       .  S
C1899      C1900   1.408       .  A
C1899      H1908   1.082       .  S
C1900      C1903   1.491       .  S
C1900      C1901   1.403       .  A
C1901      C1902   1.402       .  A
C1901      H1909   1.083       .  S
C1902      H1910   1.082       .  S
C1903      H1911   1.086       .  S
C1903      C1904   1.345       .  D
C1904      H1912   1.086       .  S
C1905      H1913   1.087       .  S
C1905      C1906   1.348       .  D
C1906      H1914   1.085       .  S
C1915      C1923   1.490       .  S
C1915      C1916   1.403       .  A
C1915      C1920   1.409       .  A
C1916      C1917   1.399       .  A
C1916      H1925   1.083       .  S
C1917      C1918   1.407       .  A
C1917      H1926   1.082       .  S
C1918      C1921   1.490       .  S
C1918      C1919   1.404       .  A
C1919      C1920   1.402       .  A
C1919      H1927   1.083       .  S
C1920      H1928   1.082       .  S
C1921      H1929   1.087       .  S
C1921      C1922   1.345       .  D
C1922      H1930   1.086       .  S
C1923      H1931   1.087       .  S
C1923      C1924   1.346       .  D
C1924      H1932   1.085       .  S
C1933      C1941   1.492       .  S
C1933      C1934   1.402       .  A
C1933      C1938   1.409       .  A
C1934      C1935   1.397       .  A
C1934      H1943   1.084       .  S
C1935      C1936   1.409       .  A
C1935      H1944   1.080       .  S
C1936      C1939   1.498       .  S
C1936      C1937   1.407       .  A
C1937      C1938   1.406       .  A
C1937      H1945   1.083       .  S
C1938      H1946   1.082       .  S
C1939      H1947   1.087       .  S
C1939      C1940   1.349       .  D
C1940      H1948   1.084       .  S
C1941      H1949   1.087       .  S
C1941      C1942   1.348       .  D
C1942      H1950   1.085       .  S
C1951      C1959   1.485       .  S
C1951      C1952   1.403       .  A
C1951      C1956   1.406       .  A
C1952      C1953   1.400       .  A
C1952      H1961   1.083       .  S
C1953      C1954   1.408       .  A
C1953      H1962   1.082       .  S
C1954      C1957   1.489       .  S
C1954      C1955   1.405       .  A
C1955      C1956   1.401       .  A
C1955      H1963   1.083       .  S
C1956      H1964   1.083       .  S
C1957      H1965   1.087       .  S
C1957      C1958   1.347       .  D
C1958      H1966   1.085       .  S
C1959      H1967   1.087       .  S
C1959      C1960   1.346       .  D
C1960      H1968   1.086       .  S
C1969      C1977   1.490       .  S
C1969      C1970   1.403       .  A
C1969      C1974   1.409       .  A
C1970      C1971   1.398       .  A
C1970      H1979   1.084       .  S
C1971      C1972   1.407       .  A
C1971      H1980   1.082       .  S
C1972      C1975   1.489       .  S
C1972      C1973   1.404       .  A
C1973      C1974   1.402       .  A
C1973      H1981   1.083       .  S
C1974      H1982   1.081       .  S
C1975      H1983   1.087       .  S
C1975      C1976   1.346       .  D
C1976      H1984   1.085       .  S
C1977      H1985   1.087       .  S
C1977      C1978   1.347       .  D
C1978      H1986   1.084       .  S
C1987      C1995   1.495       .  S
C1987      C1988   1.405       .  A
C1987      C1992   1.409       .  A
C1988      C1989   1.403       .  A
C1988      H1997   1.083       .  S
C1989      C1990   1.410       .  A
C1989      H1998   1.080       .  S
C1990      C1993   1.494       .  S
C1990      C1991   1.403       .  A
C1991      C1992   1.398       .  A
C1991      H1999   1.084       .  S
C1992      H2000   1.081       .  S
C1993      H2001   1.087       .  S
C1993      C1994   1.348       .  D
C1994      H2002   1.084       .  S
C1995      H2003   1.087       .  S
C1995      C1996   1.347       .  D
C1996      H2004   1.084       .  S
C2005      C2013   1.489       .  S
C2005      C2006   1.405       .  A
C2005      C2010   1.406       .  A
C2006      C2007   1.403       .  A
C2006      H2015   1.083       .  S
C2007      C2008   1.407       .  A
C2007      H2016   1.083       .  S
C2008      C2011   1.487       .  S
C2008      C2009   1.404       .  A
C2009      C2010   1.399       .  A
C2009      H2017   1.083       .  S
C2010      H2018   1.083       .  S
C2011      H2019   1.087       .  S
C2011      C2012   1.348       .  D
C2012      H2020   1.086       .  S
C2013      H2021   1.087       .  S
C2013      C2014   1.347       .  D
C2014      H2022   1.086       .  S
C2023      C2031   1.489       .  S
C2023      C2024   1.403       .  A
C2023      C2028   1.409       .  A
C2024      C2025   1.399       .  A
C2024      H2033   1.083       .  S
C2025      C2026   1.406       .  A
C2025      H2034   1.083       .  S
C2026      C2029   1.486       .  S
C2026      C2027   1.402       .  A
C2027      C2028   1.400       .  A
C2027      H2035   1.083       .  S
C2028      H2036   1.082       .  S
C2029      H2037   1.087       .  S
C2029      C2030   1.344       .  D
C2030      H2038   1.086       .  S
C2031      H2039   1.086       .  S
C2031      C2032   1.346       .  D
C2032      H2040   1.085       .  S
C2041      C2049   1.485       .  S
C2041      C2042   1.402       .  A
C2041      C2046   1.407       .  A
C2042      C2043   1.399       .  A
C2042      H2051   1.083       .  S
C2043      C2044   1.408       .  A
C2043      H2052   1.082       .  S
C2044      C2047   1.484       .  S
C2044      C2045   1.402       .  A
C2045      C2046   1.398       .  A
C2045      H2053   1.083       .  S
C2046      H2054   1.083       .  S
C2047      H2055   1.087       .  S
C2047      C2048   1.345       .  D
C2048      H2056   1.086       .  S
C2049      H2057   1.087       .  S
C2049      C2050   1.344       .  D
C2050      H2058   1.086       .  S
C2059      C2067   1.492       .  S
C2059      C2060   1.405       .  A
C2059      C2064   1.408       .  A
C2060      C2061   1.401       .  A
C2060      H2069   1.084       .  S
C2061      C2062   1.408       .  A
C2061      H2070   1.081       .  S
C2062      C2065   1.492       .  S
C2062      C2063   1.404       .  A
C2063      C2064   1.399       .  A
C2063      H2071   1.083       .  S
C2064      H2072   1.081       .  S
C2065      H2073   1.087       .  S
C2065      C2066   1.348       .  D
C2066      H2074   1.084       .  S
C2067      H2075   1.087       .  S
C2067      C2068   1.349       .  D
C2068      H2076   1.084       .  S
C2077      C2085   1.487       .  S
C2077      C2078   1.403       .  A
C2077      C2082   1.408       .  A
C2078      C2079   1.398       .  A
C2078      H2087   1.083       .  S
C2079      C2080   1.408       .  A
C2079      H2088   1.082       .  S
C2080      C2083   1.488       .  S
C2080      C2081   1.403       .  A
C2081      C2082   1.401       .  A
C2081      H2089   1.083       .  S
C2082      H2090   1.082       .  S
C2083      H2091   1.087       .  S
C2083      C2084   1.345       .  D
C2084      H2092   1.085       .  S
C2085      H2093   1.087       .  S
C2085      C2086   1.346       .  D
C2086      H2094   1.085       .  S
C2095      C2103   1.489       .  S
C2095      C2096   1.405       .  A
C2095      C2100   1.405       .  A
C2096      C2097   1.404       .  A
C2096      H2105   1.083       .  S
C2097      C2098   1.408       .  A
C2097      H2106   1.082       .  S
C2098      C2101   1.488       .  S
C2098      C2099   1.404       .  A
C2099      C2100   1.396       .  A
C2099      H2107   1.083       .  S
C2100      H2108   1.083       .  S
C2101      H2109   1.087       .  S
C2101      C2102   1.350       .  D
C2102      H2110   1.085       .  S
C2103      H2111   1.087       .  S
C2103      C2104   1.347       .  D
C2104      H2112   1.086       .  S
C2113      C2121   1.492       .  S
C2113      C2114   1.402       .  A
C2113      C2118   1.409       .  A
C2114      C2115   1.398       .  A
C2114      H2123   1.083       .  S
C2115      C2116   1.410       .  A
C2115      H2124   1.080       .  S
C2116      C2119   1.497       .  S
C2116      C2117   1.406       .  A
C2117      C2118   1.403       .  A
C2117      H2125   1.083       .  S
C2118      H2126   1.082       .  S
C2119      H2127   1.087       .  S
C2119      C2120   1.348       .  D
C2120      H2128   1.083       .  S
C2121      H2129   1.087       .  S
C2121      C2122   1.346       .  D
C2122      H2130   1.085       .  S
C2131      C2139   1.489       .  S
C2131      C2132   1.404       .  A
C2131      C2136   1.407       .  A
C2132      C2133   1.401       .  A
C2132      H2141   1.083       .  S
C2133      C2134   1.407       .  A
C2133      H2142   1.082       .  S
C2134      C2137   1.490       .  S
C2134      C2135   1.405       .  A
C2135      C2136   1.402       .  A
C2135      H2143   1.083       .  S
C2136      H2144   1.083       .  S
C2137      H2145   1.087       .  S
C2137      C2138   1.348       .  D
C2138      H2146   1.086       .  S
C2139      H2147   1.087       .  S
C2139      C2140   1.348       .  D
C2140      H2148   1.086       .  S
C2149      C2157   1.492       .  S
C2149      C2150   1.405       .  A
C2149      C2154   1.408       .  A
C2150      C2151   1.400       .  A
C2150      H2159   1.083       .  S
C2151      C2152   1.409       .  A
C2151      H2160   1.080       .  S
C2152      C2155   1.493       .  S
C2152      C2153   1.405       .  A
C2153      C2154   1.399       .  A
C2153      H2161   1.083       .  S
C2154      H2162   1.080       .  S
C2155      H2163   1.087       .  S
C2155      C2156   1.350       .  D
C2156      H2164   1.082       .  S
C2157      H2165   1.086       .  S
C2157      C2158   1.349       .  D
C2158      H2166   1.083       .  S
C2167      C2175   1.494       .  S
C2167      C2168   1.404       .  A
C2167      C2172   1.409       .  A
C2168      C2169   1.402       .  A
C2168      H2177   1.083       .  S
C2169      C2170   1.409       .  A
C2169      H2178   1.081       .  S
C2170      C2173   1.492       .  S
C2170      C2171   1.403       .  A
C2171      C2172   1.399       .  A
C2171      H2179   1.083       .  S
C2172      H2180   1.081       .  S
C2173      H2181   1.087       .  S
C2173      C2174   1.347       .  D
C2174      H2182   1.084       .  S
C2175      H2183   1.087       .  S
C2175      C2176   1.347       .  D
C2176      H2184   1.084       .  S
C2185      C2193   1.481       .  S
C2185      C2186   1.402       .  A
C2185      C2190   1.406       .  A
C2186      C2187   1.398       .  A
C2186      H2195   1.083       .  S
C2187      C2188   1.407       .  A
C2187      H2196   1.082       .  S
C2188      C2191   1.482       .  S
C2188      C2189   1.402       .  A
C2189      C2190   1.396       .  A
C2189      H2197   1.083       .  S
C2190      H2198   1.082       .  S
C2191      H2199   1.087       .  S
C2191      C2192   1.345       .  D
C2192      H2200   1.085       .  S
C2193      H2201   1.087       .  S
C2193      C2194   1.344       .  D
C2194      H2202   1.086       .  S
C2203      C2211   1.490       .  S
C2203      C2204   1.404       .  A
C2203      C2208   1.408       .  A
C2204      C2205   1.400       .  A
C2204      H2213   1.083       .  S
C2205      C2206   1.407       .  A
C2205      H2214   1.083       .  S
C2206      C2209   1.489       .  S
C2206      C2207   1.404       .  A
C2207      C2208   1.401       .  A
C2207      H2215   1.083       .  S
C2208      H2216   1.082       .  S
C2209      H2217   1.087       .  S
C2209      C2210   1.347       .  D
C2210      H2218   1.085       .  S
C2211      H2219   1.087       .  S
C2211      C2212   1.348       .  D
C2212      H2220   1.085       .  S
C2221      C2229   1.489       .  S
C2221      C2222   1.403       .  A
C2221      C2226   1.408       .  A
C2222      C2223   1.401       .  A
C2222      H2231   1.083       .  S
C2223      C2224   1.407       .  A
C2223      H2232   1.082       .  S
C2224      C2227   1.488       .  S
C2224      C2225   1.403       .  A
C2225      C2226   1.400       .  A
C2225      H2233   1.083       .  S
C2226      H2234   1.083       .  S
C2227      H2235   1.087       .  S
C2227      C2228   1.346       .  D
C2228      H2236   1.086       .  S
C2229      H2237   1.087       .  S
C2229      C2230   1.345       .  D
C2230      H2238   1.086       .  S
C2239      C2247   1.484       .  S
C2239      C2240   1.403       .  A
C2239      C2244   1.406       .  A
C2240      C2241   1.399       .  A
C2240      H2249   1.083       .  S
C2241      C2242   1.407       .  A
C2241      H2250   1.083       .  S
C2242      C2245   1.484       .  S
C2242      C2243   1.403       .  A
C2243      C2244   1.399       .  A
C2243      H2251   1.083       .  S
C2244      H2252   1.083       .  S
C2245      H2253   1.087       .  S
C2245      C2246   1.345       .  D
C2246      H2254   1.086       .  S
C2247      H2255   1.087       .  S
C2247      C2248   1.344       .  D
C2248      H2256   1.086       .  S
C2257      C2265   1.492       .  S
C2257      C2258   1.405       .  A
C2257      C2262   1.407       .  A
C2258      C2259   1.401   1_565  A
C2258      H2267   1.083       .  S
C2259      C2260   1.409       .  A
C2259      H2268   1.081       .  S
C2260      C2263   1.493       .  S
C2260      C2261   1.405       .  A
C2261      C2262   1.400   1_545  A
C2261      H2269   1.083       .  S
C2262      H2270   1.082       .  S
C2263      H2271   1.087       .  S
C2263      C2264   1.348       .  D
C2264      H2272   1.084       .  S
C2265      H2273   1.087       .  S
C2265      C2266   1.349       .  D
C2266      H2274   1.085       .  S
C2275      C2283   1.490       .  S
C2275      C2276   1.404       .  A
C2275      C2280   1.408       .  A
C2276      C2277   1.400       .  A
C2276      H2285   1.083       .  S
C2277      C2278   1.407       .  A
C2277      H2286   1.083       .  S
C2278      C2281   1.489       .  S
C2278      C2279   1.404       .  A
C2279      C2280   1.402       .  A
C2279      H2287   1.083       .  S
C2280      H2288   1.082       .  S
C2281      H2289   1.086       .  S
C2281      C2282   1.346       .  D
C2282      H2290   1.086       .  S
C2283      H2291   1.087       .  S
C2283      C2284   1.347       .  D
C2284      H2292   1.085       .  S
C2293      C2301   1.482       .  S
C2293      C2294   1.403       .  A
C2293      C2298   1.407       .  A
C2294      C2295   1.397       .  A
C2294      H2303   1.083       .  S
C2295      C2296   1.406       .  A
C2295      H2304   1.083       .  S
C2296      C2299   1.482       .  S
C2296      C2297   1.402       .  A
C2297      C2298   1.399       .  A
C2297      H2305   1.083       .  S
C2298      H2306   1.082       .  S
C2299      H2307   1.087       .  S
C2299      C2300   1.343       .  D
C2300      H2308   1.086       .  S
C2301      H2309   1.087       .  S
C2301      C2302   1.345       .  D
C2302      H2310   1.086       .  S
C2311      C2319   1.486       .  S
C2311      C2312   1.402       .  A
C2311      C2316   1.408       .  A
C2312      C2313   1.397       .  A
C2312      H2321   1.084       .  S
C2313      C2314   1.408   1_655  A
C2313      H2322   1.081   1_655  S
C2314      C2317   1.486       .  S
C2314      C2315   1.402   1_455  A
C2315      C2316   1.398       .  A
C2315      H2323   1.084       .  S
C2316      H2324   1.081       .  S
C2317      H2325   1.087       .  S
C2317      C2318   1.345       .  D
C2318      H2326   1.085       .  S
C2319      H2327   1.087       .  S
C2319      C2320   1.345       .  D
C2320      H2328   1.084       .  S
C2329      C2337   1.490       .  S
C2329      C2330   1.404       .  A
C2329      C2334   1.407       .  A
C2330      C2331   1.402       .  A
C2330      H2339   1.083       .  S
C2331      C2332   1.409       .  A
C2331      H2340   1.082       .  S
C2332      C2335   1.492       .  S
C2332      C2333   1.404       .  A
C2333      C2334   1.401       .  A
C2333      H2341   1.083       .  S
C2334      H2342   1.083       .  S
C2335      H2343   1.087       .  S
C2335      C2336   1.348       .  D
C2336      H2344   1.085       .  S
C2337      H2345   1.087       .  S
C2337      C2338   1.348       .  D
C2338      H2346   1.086       .  S
C2347      C2355   1.488       .  S
C2347      C2348   1.405       .  A
C2347      C2352   1.406       .  A
C2348      C2349   1.402       .  A
C2348      H2357   1.083       .  S
C2349      C2350   1.407       .  A
C2349      H2358   1.083       .  S
C2350      C2353   1.486       .  S
C2350      C2351   1.403       .  A
C2351      C2352   1.398       .  A
C2351      H2359   1.083       .  S
C2352      H2360   1.083       .  S
C2353      H2361   1.087       .  S
C2353      C2354   1.347       .  D
C2354      H2362   1.086       .  S
C2355      H2363   1.087       .  S
C2355      C2356   1.345       .  D
C2356      H2364   1.086       .  S
C2365      C2373   1.493       .  S
C2365      C2366   1.405       .  A
C2365      C2370   1.409       .  A
C2366      C2367   1.401   1_655  A
C2366      H2375   1.083       .  S
C2367      C2368   1.408       .  A
C2367      H2376   1.081       .  S
C2368      C2371   1.491       .  S
C2368      C2369   1.404       .  A
C2369      C2370   1.400   1_455  A
C2369      H2377   1.083       .  S
C2370      H2378   1.081       .  S
C2371      H2379   1.087       .  S
C2371      C2372   1.348       .  D
C2372      H2380   1.084       .  S
C2373      H2381   1.087       .  S
C2373      C2374   1.348       .  D
C2374      H2382   1.083       .  S
C2383      C2391   1.490       .  S
C2383      C2384   1.403       .  A
C2383      C2388   1.409       .  A
C2384      C2385   1.399       .  A
C2384      H2393   1.083       .  S
C2385      C2386   1.409   1_565  A
C2385      H2394   1.082   1_565  S
C2386      C2389   1.490       .  S
C2386      C2387   1.403   1_545  A
C2387      C2388   1.400       .  A
C2387      H2395   1.083   1_565  S
C2388      H2396   1.082       .  S
C2389      H2397   1.087       .  S
C2389      C2390   1.346       .  D
C2390      H2398   1.085       .  S
C2391      H2399   1.087       .  S
C2391      C2392   1.346       .  D
C2392      H2400   1.085       .  S
