geometry optimzed in LAMMPS
_audit_creation_date              2020-12-01 
_audit_creation_method            'lammps2cif' 
_symmetry_space_group_name_H-M    'P1' 
_symmetry_Int_Tables_number       1 
_symmetry_cell_setting            triclinic 
loop_ 
_symmetry_equiv_pos_as_xyz 
  x,y,z 
_cell_length_a                    47.31797457 
_cell_length_b                    47.31190948141494 
_cell_length_c                    34.012227067610226 
_cell_angle_alpha                 89.91742506704081 
_cell_angle_beta                  90.03619335240934 
_cell_angle_gamma                 90.18835479820905 
loop_ 
_atom_site_label 
_atom_site_type_symbol 
_atom_site_fract_x 
_atom_site_fract_y 
_atom_site_fract_z 
_atom_site_charge 
N1          N  0.46613002  0.82343567  0.04758738    -0.36200
N2          N  0.52729008  0.83184923  0.04696770    -0.56700
N3          N  0.52633520  0.83075905  0.96180323    -0.36200
N4          N  0.46557725  0.82464367  0.96192040    -0.56700
C5          C  0.47059325  0.82919332  0.08608052     0.27400
C6          C  0.43799278  0.82558282  0.04074595     0.27400
C7          C  0.55312685  0.83947677  0.96849579     0.27400
C8          C  0.52014949  0.83688397  0.92391189     0.27400
C9          C  0.52352256  0.82770356  0.08598136     0.36000
C10         C  0.55542124  0.82995419  0.04020361     0.36000
C11         C  0.43892955  0.81573946  0.96895553     0.36000
C12         C  0.47083100  0.81914489  0.92366992     0.36000
C13         C  0.44477032  0.83425266  0.10412750    -0.21500
C14         C  0.42430009  0.83228171  0.07548328    -0.21500
C15         C  0.56414949  0.85143533  0.93457259    -0.21500
C16         C  0.54318949  0.85011080  0.90650052    -0.21500
C17         C  0.54951938  0.82399091  0.10415770    -0.22500
C18         C  0.56963243  0.82498869  0.07512716    -0.22500
C19         C  0.42708977  0.80465011  0.93504407    -0.22500
C20         C  0.44743066  0.80652202  0.90639603    -0.22500
C21         C  0.49710347  0.82839241  0.10573075    -0.17900
C22         C  0.42424340  0.82016305  0.00447185    -0.17900
C23         C  0.49569424  0.82747322  0.90369177    -0.17900
C24         C  0.56858133  0.83438880  0.00332895    -0.17900
H25         H  0.44084707  0.83868683  0.13481945     0.15000
H26         H  0.40182786  0.83498166  0.07996603     0.15000
H27         H  0.58527809  0.85971858  0.93031161     0.15000
H28         H  0.54511591  0.85700045  0.87626095     0.15000
H29         H  0.55370937  0.82087292  0.13512024     0.13300
H30         H  0.59218270  0.82282020  0.07943867     0.13300
H31         H  0.40592752  0.79631317  0.93132219     0.13300
H32         H  0.44505275  0.79976858  0.87619098     0.13300
H33         H  0.48105578  0.81572971  0.02807232     0.26600
H34         H  0.51470736  0.81752005  0.98012042     0.26600
N35         N  0.52590764  0.82377335  0.46229125    -0.36200
N36         N  0.46510277  0.83092167  0.46234450    -0.56700
N37         N  0.46549794  0.83103007  0.54842559    -0.36200
N38         N  0.52617056  0.82072502  0.54803174    -0.56700
C39         C  0.52047780  0.82048938  0.42350911     0.27400
C40         C  0.55280562  0.81540032  0.46870286     0.27400
C41         C  0.43736193  0.82962278  0.54154213     0.27400
C42         C  0.46965830  0.82507077  0.58692154     0.27400
C43         C  0.46996864  0.83548988  0.42366532     0.36000
C44         C  0.43795469  0.83827070  0.46902826     0.36000
C45         C  0.55436897  0.82137558  0.54160748     0.36000
C46         C  0.52250268  0.82458823  0.58709193     0.36000
C47         C  0.54430241  0.80978324  0.40505124    -0.21500
C48         C  0.56475617  0.80677451  0.43352879    -0.21500
C49         C  0.42339715  0.82325515  0.57628342    -0.21500
C50         C  0.44369479  0.82069067  0.60494317    -0.21500
C51         C  0.44571954  0.84569250  0.40573047    -0.22500
C52         C  0.42541146  0.84727101  0.43439774    -0.22500
C53         C  0.56866847  0.82506623  0.57680335    -0.22500
C54         C  0.54853963  0.82683764  0.60561526    -0.22500
C55         C  0.49548180  0.82909296  0.40383223    -0.17900
C56         C  0.56761354  0.81771655  0.50470605    -0.17900
C57         C  0.49608443  0.82472766  0.60663456    -0.17900
C58         C  0.42370230  0.83535924  0.50533783    -0.17900
H59         H  0.54695430  0.80529183  0.37408551     0.15000
H60         H  0.58615694  0.79953504  0.42876867     0.15000
H61         H  0.40084868  0.82106579  0.58072674     0.15000
H62         H  0.43960725  0.81619779  0.63560092     0.15000
H63         H  0.44281827  0.85121937  0.37511371     0.13300
H64         H  0.40384040  0.85420797  0.43020595     0.13300
H65         H  0.59128399  0.82615464  0.58137478     0.13300
H66         H  0.55276212  0.82942260  0.63666152     0.13300
H67         H  0.51350510  0.83480499  0.48209948     0.26600
H68         H  0.48063804  0.83857098  0.52902633     0.26600
N69         N  0.83886346  0.46208213  0.04094334    -0.36200
N70         N  0.83946534  0.46016115  0.95573637    -0.56700
N71         N  0.84511762  0.52131550  0.95364822    -0.36200
N72         N  0.84274645  0.52285809  0.03937448    -0.56700
C73         C  0.83027615  0.43520968  0.03453945     0.27400
C74         C  0.83218753  0.46852599  0.07852252     0.27400
C75         C  0.83974946  0.51602628  0.91521720     0.27400
C76         C  0.84052697  0.54921969  0.95980789     0.27400
C77         C  0.84136892  0.43217197  0.96333105     0.36000
C78         C  0.84434934  0.46344978  0.91685030     0.36000
C79         C  0.84769250  0.51856010  0.07804109     0.36000
C80         C  0.84924649  0.55014322  0.03198393     0.36000
C81         C  0.81796368  0.42441708  0.06837368    -0.21500
C82         C  0.81889516  0.44556778  0.09604328    -0.21500
C83         C  0.83252669  0.54110793  0.89656985    -0.21500
C84         C  0.83273949  0.56193910  0.92473885    -0.21500
C85         C  0.84723448  0.41751854  0.92909515    -0.22500
C86         C  0.84893236  0.43729418  0.89958924    -0.22500
C87         C  0.85771355  0.54321865  0.09520163    -0.22500
C88         C  0.85826352  0.56336339  0.06609491    -0.22500
C89         C  0.83561073  0.41950999  0.00011409    -0.17900
C90         C  0.84060811  0.49343149  0.09840050    -0.17900
C91         C  0.84464219  0.56382613  0.99569607    -0.17900
C92         C  0.84216290  0.48939511  0.89626112    -0.17900
H93         H  0.80958667  0.40335492  0.07289960     0.15000
H94         H  0.81146071  0.44390641  0.12604615     0.15000
H95         H  0.82759673  0.54424253  0.86582498     0.15000
H96         H  0.82803757  0.58403492  0.91979563     0.15000
H97         H  0.84928610  0.39488594  0.92553726     0.13300
H98         H  0.85254425  0.43274245  0.86884727     0.13300
H99         H  0.86337144  0.54661047  0.12566161     0.13300
H100        H  0.86437707  0.58527545  0.06967138     0.13300
H101        H  0.85213635  0.47374961  0.02270729     0.26600
H102        H  0.85400355  0.50728664  0.97359081     0.26600
N103        N  0.83817929  0.51611194  0.54009992    -0.36200
N104        N  0.84375404  0.45536964  0.53875961    -0.56700
N105        N  0.84313696  0.45684069  0.45262002    -0.36200
N106        N  0.83462278  0.51761913  0.45452241    -0.56700
C107        C  0.83301216  0.50966234  0.57825021     0.27400
C108        C  0.82868413  0.54270546  0.53395959     0.27400
C109        C  0.84114299  0.42863564  0.45875933     0.27400
C110        C  0.83764134  0.46161488  0.41409916     0.27400
C111        C  0.84866142  0.45961683  0.57749471     0.36000
C112        C  0.85020635  0.42811483  0.53125620     0.36000
C113        C  0.83563183  0.54571350  0.46160199     0.36000
C114        C  0.83769660  0.51447347  0.41526692     0.36000
C115        C  0.81990962  0.53238311  0.59634174    -0.21500
C116        C  0.81742556  0.55331017  0.56848177    -0.21500
C117        C  0.83486638  0.41527415  0.42353246    -0.21500
C118        C  0.83303134  0.43597953  0.39533319    -0.21500
C119        C  0.85851083  0.43491027  0.59461991    -0.22500
C120        C  0.85914913  0.41487482  0.56542312    -0.22500
C121        C  0.83889918  0.56048206  0.42669640    -0.22500
C122        C  0.83973687  0.54075507  0.39731853    -0.22500
C123        C  0.84198441  0.48480866  0.59795654    -0.17900
C124        C  0.83152977  0.55835810  0.49874747    -0.17900
C125        C  0.83786653  0.48831599  0.39509157    -0.17900
C126        C  0.84596400  0.41437275  0.49479519    -0.17900
H127        H  0.81331970  0.53396072  0.62671884     0.15000
H128        H  0.80846812  0.57405859  0.57313190     0.15000
H129        H  0.83221676  0.39284868  0.41842268     0.15000
H130        H  0.82879257  0.43232501  0.36451398     0.15000
H131        H  0.86408387  0.43142981  0.62509557     0.13300
H132        H  0.86527029  0.39299278  0.56898165     0.13300
H133        H  0.83996101  0.58314679  0.42262653     0.13300
H134        H  0.84162981  0.54538896  0.36627916     0.13300
H135        H  0.85079098  0.50466267  0.52089340     0.26600
H136        H  0.85038613  0.47163005  0.47269328     0.26600
N137        N  0.47078414  0.14969208  0.04306812    -0.36200
N138        N  0.47081275  0.15182393  0.95761673    -0.56700
N139        N  0.53198225  0.14778384  0.95828538    -0.36200
N140        N  0.53176584  0.14745765  0.04363985    -0.56700
C141        C  0.44382750  0.15738719  0.03554807     0.27400
C142        C  0.47621777  0.15622744  0.08105636     0.27400
C143        C  0.52718709  0.15538245  0.92047489     0.27400
C144        C  0.55953328  0.15318587  0.96609180     0.27400
C145        C  0.44301507  0.14706474  0.96407555     0.36000
C146        C  0.47546614  0.14652052  0.91911534     0.36000
C147        C  0.52672412  0.14232808  0.08208629     0.36000
C148        C  0.55922142  0.14128344  0.03725081     0.36000
C149        C  0.43190701  0.16892960  0.06906727    -0.21500
C150        C  0.45243058  0.16837365  0.09776472    -0.21500
C151        C  0.55201129  0.16565943  0.90406141    -0.21500
C152        C  0.57244038  0.16419900  0.93281443    -0.21500
C153        C  0.42984454  0.13893303  0.92948446    -0.22500
C154        C  0.45045127  0.13847370  0.90098649    -0.22500
C155        C  0.55109680  0.13261168  0.10020934    -0.22500
C156        C  0.57176773  0.13213655  0.07180239    -0.22500
C157        C  0.42914983  0.15205774  0.00017002    -0.17900
C158        C  0.50137183  0.14957222  0.10162484    -0.17900
C159        C  0.57364743  0.14690420  0.00173402    -0.17900
C160        C  0.50152013  0.15131058  0.89970556    -0.17900
H161        H  0.41055256  0.17666380  0.07256921     0.15000
H162        H  0.44993728  0.17563335  0.12771955     0.15000
H163        H  0.55517195  0.17314614  0.87429913     0.15000
H164        H  0.59436770  0.17033177  0.92947666     0.15000
H165        H  0.40766571  0.13420656  0.92514443     0.13300
H166        H  0.44727917  0.13330324  0.87031308     0.13300
H167        H  0.55393807  0.12736701  0.13093744     0.13300
H168        H  0.59367380  0.12644598  0.07626644     0.13300
H169        H  0.48338258  0.13742256  0.02481876     0.26600
H170        H  0.51815105  0.13652025  0.97620579     0.26600
N171        N  0.53159581  0.14639203  0.54299382    -0.36200
N172        N  0.53186045  0.14613719  0.45717991    -0.56700
N173        N  0.47095251  0.14979201  0.45805434    -0.36200
N174        N  0.47073034  0.14773490  0.54392190    -0.56700
C175        C  0.55875278  0.13947608  0.53561011     0.27400
C176        C  0.52656123  0.14064788  0.58133952     0.27400
C177        C  0.47570051  0.14386679  0.41969116     0.27400
C178        C  0.44337233  0.14437038  0.46538573     0.27400
C179        C  0.55958978  0.15081830  0.46416192     0.36000
C180        C  0.52735891  0.15275184  0.41900150     0.36000
C181        C  0.47575049  0.15324734  0.58231596     0.36000
C182        C  0.44343851  0.15449557  0.53715868     0.36000
C183        C  0.57116759  0.12910317  0.56963278    -0.21500
C184        C  0.55080979  0.12980953  0.59852459    -0.21500
C185        C  0.45081608  0.13450563  0.40243432    -0.21500
C186        C  0.43038175  0.13491882  0.43125544    -0.21500
C187        C  0.57285922  0.16014787  0.43019516    -0.22500
C188        C  0.55240340  0.16145319  0.40157914    -0.22500
C189        C  0.45148552  0.16340690  0.60008315    -0.22500
C190        C  0.43096891  0.16413863  0.57145491    -0.22500
C191        C  0.57333502  0.14534869  0.50025062    -0.17900
C192        C  0.50153049  0.14761806  0.60185332    -0.17900
C193        C  0.42919993  0.15023610  0.50109830    -0.17900
C194        C  0.50125186  0.14928910  0.39926543    -0.17900
H195        H  0.59287852  0.12252029  0.57351459     0.15000
H196        H  0.55376917  0.12382765  0.62897432     0.15000
H197        H  0.44754896  0.12867648  0.37200515     0.15000
H198        H  0.40832832  0.12947185  0.42731642     0.15000
H199        H  0.59497065  0.16541241  0.42640987     0.13300
H200        H  0.55564427  0.16795512  0.37139414     0.13300
H201        H  0.44879704  0.16947817  0.63051484     0.13300
H202        H  0.40931685  0.17085494  0.57545273     0.13300
H203        H  0.51866423  0.15813010  0.52450242     0.26600
H204        H  0.48468642  0.16049201  0.47672557     0.26600
N205        N  0.15946288  0.45779105  0.95572054    -0.36200
N206        N  0.15599790  0.51872697  0.95299166    -0.56700
N207        N  0.15481458  0.52053976  0.03845920    -0.36200
N208        N  0.16007651  0.45948318  0.04120809    -0.56700
C209        C  0.16704711  0.46283287  0.91796350     0.27400
C210        C  0.16752990  0.43113553  0.96446511     0.27400
C211        C  0.15842549  0.54827418  0.02990751     0.27400
C212        C  0.16144722  0.51692485  0.07687642     0.27400
C213        C  0.15155699  0.51274157  0.91465471     0.36000
C214        C  0.14816067  0.54587088  0.95826161     0.36000
C215        C  0.15733182  0.43127357  0.03610545     0.36000
C216        C  0.15654112  0.46443090  0.08002735     0.36000
C217        C  0.18025028  0.43911570  0.90271195    -0.21500
C218        C  0.18028066  0.41899925  0.93196066    -0.21500
C219        C  0.16708686  0.56255162  0.06340109    -0.21500
C220        C  0.16881368  0.54284028  0.09306792    -0.21500
C221        C  0.14059132  0.53616035  0.89550261    -0.22500
C222        C  0.13861526  0.55723847  0.92313216    -0.22500
C223        C  0.15223680  0.41816552  0.07186250    -0.22500
C224        C  0.15197966  0.43913653  0.09974728    -0.22500
C225        C  0.16034606  0.48747472  0.89621178    -0.17900
C226        C  0.16227330  0.41699269  0.00031467    -0.17900
C227        C  0.15932538  0.49121757  0.09819403    -0.17900
C228        C  0.15256747  0.56127838  0.99327583    -0.17900
H229        H  0.18859558  0.43638580  0.87335076     0.15000
H230        H  0.18872360  0.39783494  0.92957842     0.15000
H231        H  0.17136745  0.58493686  0.06635045     0.15000
H232        H  0.17458508  0.54728753  0.12321235     0.15000
H233        H  0.13537182  0.53811908  0.86463838     0.13300
H234        H  0.13159758  0.57865721  0.91781610     0.13300
H235        H  0.14985876  0.39575691  0.07745395     0.13300
H236        H  0.14917435  0.43599406  0.13101727     0.13300
H237        H  0.14646408  0.47038406  0.97297224     0.26600
H238        H  0.14541478  0.50562116  0.02026036     0.26600
N239        N  0.16346164  0.52409764  0.45524849    -0.36200
N240        N  0.16392364  0.52303494  0.54106996    -0.56700
N241        N  0.15702060  0.46191820  0.53927232    -0.36200
N242        N  0.15938405  0.46290878  0.45347159    -0.56700
C243        C  0.17094602  0.55109981  0.46326126     0.27400
C244        C  0.17045394  0.51901521  0.41729162     0.27400
C245        C  0.16219310  0.46553476  0.57812560     0.27400
C246        C  0.15904600  0.43391570  0.53160140     0.27400
C247        C  0.16266483  0.55133203  0.53560808     0.36000
C248        C  0.16114345  0.51847703  0.58016699     0.36000
C249        C  0.15581585  0.46849345  0.41478811     0.36000
C250        C  0.15175969  0.43563121  0.45895315     0.36000
C251        C  0.18253451  0.56346963  0.43000270    -0.21500
C252        C  0.18263548  0.54311819  0.40118943    -0.21500
C253        C  0.16667861  0.43931512  0.59542158    -0.21500
C254        C  0.16499295  0.41948569  0.56608717    -0.21500
C255        C  0.15960296  0.56487414  0.57142230    -0.22500
C256        C  0.15895236  0.54413019  0.59965064    -0.22500
C257        C  0.14567555  0.44464296  0.39567767    -0.22500
C258        C  0.14337518  0.42375426  0.42360063    -0.22500
C259        C  0.16628062  0.56532298  0.49917096    -0.17900
C260        C  0.16424375  0.49394498  0.39605305    -0.17900
C261        C  0.15416839  0.42073485  0.49483919    -0.17900
C262        C  0.16196523  0.49162927  0.59878920    -0.17900
H263        H  0.19026530  0.58490234  0.42682732     0.15000
H264        H  0.19042122  0.54596777  0.37153566     0.15000
H265        H  0.17060523  0.43468954  0.62607439     0.15000
H266        H  0.16746456  0.39691333  0.56992151     0.15000
H267        H  0.15868699  0.58739734  0.57679213     0.13300
H268        H  0.15732617  0.54769884  0.63097070     0.13300
H269        H  0.14102603  0.44231067  0.36469665     0.13300
H270        H  0.13654452  0.40222007  0.41843253     0.13300
H271        H  0.15115436  0.51123086  0.47316901     0.26600
H272        H  0.14980601  0.47720588  0.51991305     0.26600
O273        O  0.87737172  0.83184147  0.96671393    -0.74000
O274        O  0.79629995  0.83087868  0.96464538    -0.74000
O275        O  0.83677059  0.87166747  0.96458483    -0.74100
O276        O  0.83708832  0.79058673  0.96665353    -0.74100
O277        O  0.83606503  0.79137604  0.03196681    -0.74100
O278        O  0.83619673  0.87239128  0.03014041    -0.74000
O279        O  0.79542673  0.83161682  0.03008679    -0.74000
O280        O  0.87660830  0.83218118  0.03228701    -0.74100
Ni281      Ni  0.83687317  0.83115131  0.96333138     1.25400
Ni282      Ni  0.83599611  0.83188457  0.03344458     1.25400
C283        C  0.89030269  0.83284632  0.99980956     0.88200
C284        C  0.78243668  0.83136451  0.99698635     0.88100
C285        C  0.83720266  0.88535209  0.99704628     0.88100
C286        C  0.83677709  0.77747885  0.99970077     0.88300
O287        O  0.83521807  0.86679145  0.54495402    -0.74000
O288        O  0.83638595  0.78558234  0.54490232    -0.74000
O289        O  0.87642714  0.82729476  0.54266088    -0.74100
O290        O  0.79511863  0.82525811  0.54677843    -0.74100
O291        O  0.79383358  0.82563371  0.48145475    -0.74100
O292        O  0.87459096  0.82652139  0.47712730    -0.74000
O293        O  0.83438356  0.78552247  0.47957261    -0.74000
O294        O  0.83412160  0.86666506  0.47942727    -0.74100
Ni295      Ni  0.83583879  0.82620735  0.54719206     1.25400
Ni296      Ni  0.83413677  0.82608917  0.47713119     1.25400
C297        C  0.83528024  0.88009666  0.51210806     0.88200
C298        C  0.83522188  0.77205677  0.51230821     0.88100
C299        C  0.88880726  0.82763961  0.50910057     0.88100
C300        C  0.78097993  0.82499205  0.51459645     0.88300
O301        O  0.84098881  0.11319960  0.96708460    -0.74000
O302        O  0.84024836  0.19407027  0.97393316    -0.74000
O303        O  0.88116469  0.15430308  0.96911696    -0.74100
O304        O  0.80026073  0.15311972  0.97142844    -0.74100
O305        O  0.80112621  0.15059114  0.03672582    -0.74100
O306        O  0.88222264  0.15083776  0.03454110    -0.74000
O307        O  0.84161522  0.19126850  0.03912319    -0.74000
O308        O  0.84161091  0.11039254  0.03251467    -0.74100
Ni309      Ni  0.84065782  0.15378063  0.96808637     1.25400
Ni310      Ni  0.84170235  0.15070006  0.03806429     1.25400
C311        C  0.84153124  0.09846236  0.99872882     0.88200
C312        C  0.84052635  0.20614574  0.00767578     0.88100
C313        C  0.89498304  0.15249206  0.00138188     0.88100
C314        C  0.78724582  0.15148327  0.00437931     0.88300
O315        O  0.88124274  0.14918429  0.53335360    -0.74000
O316        O  0.80018595  0.14800401  0.53525753    -0.74000
O317        O  0.84089436  0.10799594  0.53735063    -0.74100
O318        O  0.84039846  0.18901706  0.53119687    -0.74100
O319        O  0.84009013  0.18655858  0.46583953    -0.74100
O320        O  0.83909888  0.10570425  0.47189138    -0.74000
O321        O  0.79924671  0.14653290  0.46976163    -0.74000
O322        O  0.88026258  0.14602685  0.46801449    -0.74100
Ni323      Ni  0.84072901  0.14861565  0.53663354     1.25400
Ni324      Ni  0.83969473  0.14607597  0.46656936     1.25400
C325        C  0.89413365  0.14840254  0.50023897     0.88200
C326        C  0.78637635  0.14704913  0.50287222     0.88100
C327        C  0.83928900  0.09354554  0.50557871     0.88100
C328        C  0.84020802  0.20118260  0.49747291     0.88300
O329        O  0.12101433  0.15034177  0.02814891    -0.74000
O330        O  0.20197304  0.14746594  0.03136794    -0.74000
O331        O  0.16279350  0.18938090  0.03112770    -0.74100
O332        O  0.16005434  0.10847356  0.02843052    -0.74100
O333        O  0.16148081  0.10955180  0.96298158    -0.74100
O334        O  0.16428292  0.19061109  0.96573186    -0.74000
O335        O  0.20326872  0.14849041  0.96595634    -0.74000
O336        O  0.12233471  0.15151068  0.96282505    -0.74100
Ni337      Ni  0.16143466  0.14888257  0.03207997     1.25400
Ni338      Ni  0.16289102  0.15010104  0.96204692     1.25400
C339        C  0.10820435  0.15144701  0.99494383     0.88200
C340        C  0.21599965  0.14708198  0.99913625     0.88100
C341        C  0.16354964  0.20341296  0.99891927     0.88100
C342        C  0.16018287  0.09563651  0.99527929     0.88300
O343        O  0.16261371  0.11271911  0.52467995    -0.74000
O344        O  0.16023968  0.19375806  0.52398721    -0.74000
O345        O  0.12098216  0.15215297  0.52438686    -0.74100
O346        O  0.20196398  0.15426203  0.52484043    -0.74100
O347        O  0.20214472  0.15334557  0.45941400    -0.74100
O348        O  0.12077528  0.15210294  0.45879209    -0.74000
O349        O  0.16072722  0.19334892  0.45865944    -0.74000
O350        O  0.16187049  0.11251599  0.45906349    -0.74100
Ni351      Ni  0.16146667  0.15323424  0.52678777     1.25400
Ni352      Ni  0.16144554  0.15286782  0.45664248     1.25400
C353        C  0.16251502  0.09936861  0.49192960     0.88200
C354        C  0.15960739  0.20702566  0.49107513     0.88100
C355        C  0.10754194  0.15210768  0.49168148     0.88100
C356        C  0.21551029  0.15355598  0.49225669     0.88300
O357        O  0.15989005  0.86993830  0.96251170    -0.74000
O358        O  0.15452011  0.78909450  0.95914536    -0.74000
O359        O  0.11655436  0.83197430  0.96185154    -0.74100
O360        O  0.19760739  0.82690644  0.96013500    -0.74100
O361        O  0.19813417  0.82645506  0.02565747    -0.74100
O362        O  0.11743109  0.82984917  0.02725058    -0.74000
O363        O  0.15607347  0.78755799  0.02455042    -0.74000
O364        O  0.15953865  0.86858641  0.02809911    -0.74100
Ni365      Ni  0.15709830  0.82955104  0.95855311     1.25400
Ni366      Ni  0.15780414  0.82804012  0.02868897     1.25400
C367        C  0.16063594  0.88253140  0.99582415     0.88200
C368        C  0.15459657  0.77493241  0.99125857     0.88100
C369        C  0.10362614  0.83188017  0.99500881     0.88100
C370        C  0.21119449  0.82578618  0.99271430     0.88300
O371        O  0.11595328  0.83251848  0.53125094    -0.74000
O372        O  0.19687129  0.83541633  0.53068595    -0.74000
O373        O  0.15531673  0.87429225  0.52931049    -0.74100
O374        O  0.15778741  0.79347144  0.53264075    -0.74100
O375        O  0.15759979  0.79212733  0.46735613    -0.74100
O376        O  0.15471569  0.87307100  0.46381927    -0.74000
O377        O  0.19657981  0.83427261  0.46536482    -0.74000
O378        O  0.11540667  0.83119505  0.46583103    -0.74100
Ni379      Ni  0.15644653  0.83395792  0.53325815     1.25400
Ni380      Ni  0.15604126  0.83258718  0.46324457     1.25400
C381        C  0.10225519  0.83130621  0.49879648     0.88200
C382        C  0.21019740  0.83559140  0.49788959     0.88100
C383        C  0.15454873  0.88701631  0.49608113     0.88100
C384        C  0.15846043  0.77931498  0.50061087     0.88300
C385        C  0.18258125  0.02290721  0.50988632    -0.22000
C386        C  0.16006676  0.00889868  0.49142807     0.09900
C387        C  0.13882776  0.02462622  0.47228942     0.10300
C388        C  0.14031581  0.05422131  0.47264568    -0.16900
C389        C  0.16248112  0.06829001  0.49186111    -0.27400
C390        C  0.18415137  0.05253837  0.51010333     0.18700
C391        C  0.15903028  0.97769084  0.49248274     0.12600
C392        C  0.11475270  0.01013968  0.45134970    -0.11700
H393        H  0.12393792  0.06647212  0.45830734     0.12900
C394        C  0.20936672  0.06689297  0.52848589    -0.22500
H395        H  0.19898804  0.01057226  0.52399094     0.08600
C396        C  0.17393208  0.96124773  0.46498394     0.04900
C397        C  0.17145402  0.93170672  0.46636479    -0.19800
C398        C  0.15451938  0.91825988  0.49479742    -0.12100
C399        C  0.13924323  0.93497144  0.52205118     0.13600
C400        C  0.14210178  0.96446477  0.52081955    -0.22500
C401        C  0.19246183  0.97493320  0.43434668    -0.05600
H402        H  0.18327940  0.91901292  0.44562005     0.15100
C403        C  0.11881515  0.92286416  0.55172340    -0.15800
H404        H  0.13045929  0.97735131  0.54155573     0.09500
H405        H  0.22481089  0.05133470  0.54008096     0.07300
H406        H  0.20250507  0.08044415  0.55327307     0.08500
H407        H  0.22029213  0.08013531  0.50617875     0.07600
H408        H  0.10247170  0.99711560  0.47250596     0.02400
H409        H  0.12318301  0.99629757  0.42780818     0.02900
H410        H  0.10012198  0.02559410  0.43762236     0.06400
H411        H  0.20251862  0.95902041  0.41493085     0.05400
H412        H  0.20948539  0.98728197  0.44890281    -0.00400
H413        H  0.17964550  0.98931131  0.41572510     0.01100
H414        H  0.12718076  0.92627248  0.58185919     0.04800
H415        H  0.11435904  0.90011147  0.54751712     0.06700
H416        H  0.09817715  0.93381681  0.54903839     0.07600
C417        C  0.18390269  0.95864567  0.97917099    -0.22000
C418        C  0.16189058  0.97329177  0.99755806     0.09900
C419        C  0.13999502  0.95808102  0.01624562     0.10300
C420        C  0.14059562  0.92841893  0.01608108    -0.16900
C421        C  0.16230170  0.91367064  0.99702060    -0.27400
C422        C  0.18448299  0.92897710  0.97876494     0.18700
C423        C  0.16203024  0.00459430  0.99675260     0.12600
C424        C  0.11595489  0.97319421  0.03611165    -0.11700
H425        H  0.12370075  0.91666583  0.03012741     0.12900
C426        C  0.20946660  0.91485229  0.95966173    -0.22500
H427        H  0.20080578  0.97046857  0.96517208     0.08600
C428        C  0.17718774  0.02049526  0.02475023     0.04900
C429        C  0.17597561  0.05011481  0.02342163    -0.19800
C430        C  0.15984454  0.06428428  0.99482598    -0.12100
C431        C  0.14425523  0.04810984  0.96707702     0.13600
C432        C  0.14595958  0.01850711  0.96815055    -0.22500
C433        C  0.19443135  0.00616496  0.05617376    -0.05600
H434        H  0.18791526  0.06230941  0.04472099     0.15100
C435        C  0.12449506  0.06079912  0.93716369    -0.15800
H436        H  0.13403251  0.00608192  0.94707160     0.09500
H437        H  0.22925739  0.92242118  0.97377837     0.07300
H438        H  0.21006875  0.92040920  0.92794721     0.08500
H439        H  0.20907844  0.89152756  0.96239666     0.07600
H440        H  0.10441356  0.98629140  0.01431011     0.02400
H441        H  0.12430958  0.98705339  0.05975827     0.02900
H442        H  0.10066562  0.95813438  0.04947505     0.06400
H443        H  0.20483219  0.02170775  0.07594400     0.05400
H444        H  0.21113090  0.99308157  0.04237831    -0.00400
H445        H  0.18056132  0.99239753  0.07432465     0.01100
H446        H  0.13214809  0.05592958  0.90708316     0.04800
H447        H  0.12217705  0.08385991  0.93997180     0.06700
H448        H  0.10306773  0.05152588  0.94091692     0.07600
C449        C  0.97022356  0.16305956  0.46865678    -0.22000
C450        C  0.98530089  0.14854816  0.49775169     0.09900
C451        C  0.97049324  0.13528480  0.52871427     0.10300
C452        C  0.94078077  0.13590250  0.52898951    -0.16900
C453        C  0.92549687  0.14993450  0.49936588    -0.27400
C454        C  0.94060111  0.16465314  0.46958871     0.18700
C455        C  0.01666369  0.14886990  0.49608989     0.12600
C456        C  0.98607095  0.12050185  0.56138515    -0.11700
H457        H  0.92941856  0.12504915  0.55222891     0.12900
C458        C  0.92664164  0.18359370  0.43964020    -0.22500
H459        H  0.98176911  0.17400360  0.44564972     0.08600
C460        C  0.03195204  0.12838700  0.47481906     0.04900
C461        C  0.06161982  0.13029565  0.47301962    -0.19800
C462        C  0.07627561  0.15215397  0.49223214    -0.12100
C463        C  0.06079555  0.17297155  0.51289423     0.13600
C464        C  0.03122765  0.17089476  0.51477633    -0.22500
C465        C  0.01691451  0.10449700  0.45429051    -0.05600
H466        H  0.07346966  0.11437266  0.45720741     0.15100
C467        C  0.07454065  0.19824776  0.53208191    -0.15800
H468        H  0.01935741  0.18686200  0.53049100     0.09500
H469        H  0.92901037  0.17433475  0.40985821     0.07300
H470        H  0.93704702  0.20467444  0.44001525     0.08500
H471        H  0.90399940  0.18744238  0.44553605     0.07600
H472        H  0.00007998  0.13577887  0.57675713     0.02400
H473        H  0.99907736  0.10314014  0.54913793     0.02900
H474        H  0.97132549  0.11129379  0.58337712     0.06400
H475        H  0.03196424  0.09025313  0.43907646     0.05400
H476        H  0.00207541  0.11311979  0.43204015    -0.00400
H477        H  0.00484595  0.09177526  0.47603186     0.01100
H478        H  0.06523397  0.21791218  0.51986876     0.04800
H479        H  0.09762761  0.19948583  0.52710497     0.06700
H480        H  0.07060651  0.19762532  0.56424709     0.07600
C481        C  0.97197961  0.13223592  0.01540747    -0.22000
C482        C  0.98566764  0.15564754  0.99871014     0.09900
C483        C  0.96952410  0.17767539  0.98214189     0.10300
C484        C  0.93988972  0.17587361  0.98300696    -0.16900
C485        C  0.92613861  0.15262043  0.00024852    -0.27400
C486        C  0.94239752  0.13026949  0.01608336     0.18700
C487        C  0.01696471  0.15593549  0.99755833     0.12600
C488        C  0.98358921  0.20313976  0.96400347    -0.11700
H489        H  0.92736194  0.19287098  0.97068187     0.12900
C490        C  0.92942293  0.10356547  0.03238962    -0.22500
H491        H  0.98452337  0.11512576  0.02741451     0.08600
C492        C  0.03319162  0.16401335  0.03041823     0.04900
C493        C  0.06278677  0.16255116  0.02840960    -0.19800
C494        C  0.07669907  0.15307120  0.99427968    -0.12100
C495        C  0.06010987  0.14511893  0.96117835     0.13600
C496        C  0.03051163  0.14672479  0.96339164    -0.22500
C497        C  0.01922511  0.17417551  0.06756277    -0.05600
H498        H  0.07510225  0.16891365  0.05379063     0.15100
C499        C  0.07298506  0.13400751  0.92378974    -0.15800
H500        H  0.01771183  0.14036906  0.93845133     0.09500
H501        H  0.93513664  0.10135595  0.06390488     0.07300
H502        H  0.93775234  0.08506851  0.01605641     0.08500
H503        H  0.90610148  0.10294832  0.02979179     0.07600
H504        H  0.99712657  0.19648138  0.93906008     0.02400
H505        H  0.99686184  0.21396529  0.98634965     0.02900
H506        H  0.96786903  0.21853467  0.95270594     0.06400
H507        H  0.03498264  0.17993573  0.09043047     0.05400
H508        H  0.00541360  0.15727846  0.07968639    -0.00400
H509        H  0.00624681  0.19313063  0.06108846     0.01100
H510        H  0.05662640  0.12769825  0.90203735     0.04800
H511        H  0.08580572  0.11506201  0.93039007     0.06700
H512        H  0.08628286  0.15053708  0.90978337     0.07600
C513        C  0.96530003  0.85165038  0.52090782    -0.22000
C514        C  0.97955164  0.83021404  0.50062641     0.09900
C515        C  0.96390023  0.80817963  0.48299548     0.10300
C516        C  0.93428137  0.80811226  0.48595699    -0.16900
C517        C  0.91997432  0.82926213  0.50683988    -0.27400
C518        C  0.93567621  0.85159443  0.52407474     0.18700
C519        C  0.01093783  0.83068480  0.49937044     0.12600
C520        C  0.97851832  0.78463277  0.46138326    -0.11700
H521        H  0.92221930  0.79117610  0.47247890     0.12900
C522        C  0.92200885  0.87617160  0.54479663    -0.22500
H523        H  0.97739954  0.86862083  0.53424502     0.08600
C524        C  0.02595418  0.84566357  0.47013889     0.04900
C525        C  0.05570113  0.84513452  0.47024018    -0.19800
C526        C  0.07080483  0.83039905  0.49940384    -0.12100
C527        C  0.05554321  0.81526099  0.52855743     0.13600
C528        C  0.02585137  0.81559139  0.52803572    -0.22500
C529        C  0.01053738  0.86225019  0.43902804    -0.05600
H530        H  0.06722189  0.85674756  0.44787799     0.15100
C531        C  0.07025338  0.79795377  0.55964645    -0.15800
H532        H  0.01409482  0.80399017  0.55018032     0.09500
H533        H  0.92852667  0.89620715  0.53031037     0.07300
H534        H  0.92902506  0.87665413  0.57594381     0.08500
H535        H  0.89863261  0.87540121  0.54422423     0.07600
H536        H  0.99285037  0.77321391  0.48175287     0.02400
H537        H  0.99105487  0.79345811  0.43664515     0.02900
H538        H  0.96317670  0.76913356  0.44918962     0.06400
H539        H  0.02539515  0.87274091  0.41832679     0.05400
H540        H  0.99745025  0.87883754  0.45308973    -0.00400
H541        H  0.99661446  0.84792669  0.42185074     0.01100
H542        H  0.05497216  0.78597648  0.57807730     0.04800
H543        H  0.08247282  0.81195167  0.57956623     0.06700
H544        H  0.08462102  0.78246665  0.54555184     0.07600
C545        C  0.81683023  0.01706831  0.48930374    -0.22000
C546        C  0.83750335  0.00262902  0.51085322     0.09900
C547        C  0.85830569  0.01814278  0.53141827     0.10300
C548        C  0.85801791  0.04783860  0.52983014    -0.16900
C549        C  0.83758682  0.06235294  0.50776261    -0.27400
C550        C  0.81635344  0.04673200  0.48782815     0.18700
C551        C  0.83682355  0.97123685  0.51173317     0.12600
C552        C  0.88078429  0.00331089  0.55497027    -0.11700
H553        H  0.87415073  0.05978871  0.54526328     0.12900
C554        C  0.79222563  0.06045529  0.46604034    -0.22500
H555        H  0.80068029  0.00507175  0.47395600     0.08600
C556        C  0.81897505  0.95627979  0.53773341     0.04900
C557        C  0.81919946  0.92654736  0.53760530    -0.19800
C558        C  0.83683339  0.91141397  0.51196118    -0.12100
C559        C  0.85538882  0.92656666  0.48676750     0.13600
C560        C  0.85470514  0.95624373  0.48651859    -0.22500
C561        C  0.79978384  0.97176052  0.56562154    -0.05600
H562        H  0.80522352  0.91504639  0.55721263     0.15100
C563        C  0.87718850  0.91245254  0.46114554    -0.15800
H564        H  0.86873471  0.96784569  0.46708009     0.09500
H565        H  0.77185917  0.05250204  0.47800606     0.07300
H566        H  0.79345072  0.05495542  0.43436817     0.08500
H567        H  0.79188013  0.08374856  0.46884796     0.07600
H568        H  0.89358464  0.98967887  0.53535418     0.02400
H569        H  0.87076673  0.99002152  0.57803788     0.02900
H570        H  0.89526118  0.01855004  0.56958887     0.06400
H571        H  0.78745368  0.95694088  0.58433249     0.05400
H572        H  0.78464940  0.98493624  0.54874473    -0.00400
H573        H  0.81253108  0.98559406  0.58518147     0.01100
H574        H  0.87216314  0.91640519  0.42973278     0.04800
H575        H  0.87884174  0.88939859  0.46599731     0.06700
H576        H  0.89836782  0.92148063  0.46769903     0.07600
C577        C  0.02802343  0.84895946  0.02601913    -0.22000
C578        C  0.01252015  0.83479252  0.99700410     0.09900
C579        C  0.02688473  0.82046517  0.96670237     0.10300
C580        C  0.05658559  0.82025478  0.96642636    -0.16900
C581        C  0.07228919  0.83376170  0.99608970    -0.27400
C582        C  0.05771875  0.84859916  0.02609716     0.18700
C583        C  0.98120248  0.83482483  0.99928335     0.12600
C584        C  0.01079675  0.80509702  0.93500825    -0.11700
H585        H  0.06758863  0.80894278  0.94338727     0.12900
C586        C  0.07316365  0.86475152  0.05773318    -0.22500
H587        H  0.01675028  0.86011962  0.04895296     0.08600
C588        C  0.96644845  0.81491190  0.02248182     0.04900
C589        C  0.93674385  0.81518668  0.02286825    -0.19800
C590        C  0.92150219  0.83488183  0.00045470    -0.12100
C591        C  0.93640957  0.85566540  0.97860510     0.13600
C592        C  0.96607776  0.85510808  0.97794442    -0.22500
C593        C  0.98210920  0.79313100  0.04628228    -0.05600
H594        H  0.92534376  0.79952828  0.03999021     0.15100
C595        C  0.92191999  0.87936222  0.95686698    -0.15800
H596        H  0.97753723  0.87075738  0.96086711     0.09500
H597        H  0.08499188  0.84997590  0.07695608     0.07300
H598        H  0.05839973  0.87673907  0.07678365     0.08500
H599        H  0.08796904  0.88012774  0.04410298     0.07600
H600        H  0.99731993  0.82024057  0.91861136     0.02400
H601        H  0.99719976  0.78852306  0.94841209     0.02900
H602        H  0.02520640  0.79474713  0.91370384     0.06400
H603        H  0.96741359  0.77901107  0.06258195     0.05400
H604        H  0.99603276  0.80380291  0.06799143    -0.00400
H605        H  0.99521088  0.77988015  0.02653788     0.01100
H606        H  0.93013808  0.89995596  0.96766012     0.04800
H607        H  0.89873673  0.87964360  0.96111079     0.06700
H608        H  0.92643012  0.87762036  0.92493644     0.07600
C609        C  0.85665085  0.02220465  0.96924848    -0.22000
C610        C  0.83856220  0.00755290  0.99476244     0.09900
C611        C  0.82168046  0.02271917  0.02149893     0.10300
C612        C  0.82326811  0.05235182  0.02211217    -0.16900
C613        C  0.84138702  0.06720393  0.99660065    -0.27400
C614        C  0.85861191  0.05182932  0.97008649     0.18700
C615        C  0.83849494  0.97623674  0.99417794     0.12600
C616        C  0.80201089  0.00757107  0.04931547    -0.11700
H617        H  0.81008615  0.06402943  0.04242825     0.12900
C618        C  0.88030403  0.06550805  0.94364885    -0.22500
H619        H  0.86987555  0.01035224  0.94917308     0.08600
C620        C  0.82056061  0.96083539  0.96889269     0.04900
C621        C  0.82087233  0.93116184  0.97017973    -0.19800
C622        C  0.83879365  0.91657173  0.99610315    -0.12100
C623        C  0.85768571  0.93214383  0.02023729     0.13600
C624        C  0.85689396  0.96178722  0.01937880    -0.22500
C625        C  0.80101289  0.97575516  0.94081106    -0.05600
H626        H  0.80672374  0.91927973  0.95128364     0.15100
C627        C  0.87985001  0.91851307  0.04585907    -0.15800
H628        H  0.87106629  0.97378285  0.03812702     0.09500
H629        H  0.87439329  0.06195975  0.91244245     0.07300
H630        H  0.90127617  0.05578665  0.94911903     0.08500
H631        H  0.88293131  0.08845411  0.94860829     0.07600
H632        H  0.81430005  0.99327773  0.06873399     0.02400
H633        H  0.78642913  0.99490350  0.03237985     0.02900
H634        H  0.79019442  0.02258619  0.06818556     0.06400
H635        H  0.78838668  0.96056769  0.92310871     0.05400
H636        H  0.81352141  0.98910132  0.92029829    -0.00400
H637        H  0.78616362  0.98935992  0.95742625     0.01100
H638        H  0.90096675  0.92718826  0.03810236     0.04800
H639        H  0.88119458  0.89532974  0.04222718     0.06700
H640        H  0.87544830  0.92331633  0.07719998     0.07600
C641        C  0.16910173  0.70243021  0.53364718    -0.22000
C642        C  0.16312935  0.68786107  0.49877421     0.09900
C643        C  0.15552451  0.70327358  0.46484488     0.10300
C644        C  0.15410670  0.73287871  0.46663681    -0.16900
C645        C  0.16013605  0.74776003  0.50150117    -0.27400
C646        C  0.16799750  0.73209900  0.53552786     0.18700
C647        C  0.16455173  0.65644974  0.49869733     0.12600
C648        C  0.14941862  0.68861252  0.42642222    -0.11700
H649        H  0.14812160  0.74443842  0.44041836     0.12900
C650        C  0.17583935  0.74611157  0.57383398    -0.22500
H651        H  0.17465004  0.69039911  0.55966488     0.08600
C652        C  0.19044595  0.64185741  0.50273771     0.04900
C653        C  0.19044574  0.61214362  0.50302594    -0.19800
C654        C  0.16526998  0.59675687  0.49852373    -0.12100
C655        C  0.13945916  0.61135400  0.49376548     0.13600
C656        C  0.13939677  0.64097620  0.49457356    -0.22500
C657        C  0.21812599  0.65753179  0.50575121    -0.05600
H658        H  0.21016091  0.60079303  0.50640824     0.15100
C659        C  0.11164067  0.59637798  0.48758719    -0.15800
H660        H  0.11951208  0.65212952  0.49178192     0.09500
H661        H  0.18261831  0.73049841  0.59633982     0.07300
H662        H  0.15733900  0.75750632  0.58596891     0.08500
H663        H  0.19370262  0.76101592  0.56911904     0.07600
H664        H  0.13057888  0.67477708  0.42936467     0.02400
H665        H  0.16789775  0.67567190  0.41765388     0.02900
H666        H  0.14507910  0.70395051  0.40243116     0.06400
H667        H  0.23634958  0.64281998  0.50705494     0.05400
H668        H  0.21856104  0.67060634  0.53277552    -0.00400
H669        H  0.22089155  0.67138612  0.47964796     0.01100
H670        H  0.09678155  0.60219063  0.51147210     0.04800
H671        H  0.11359913  0.57304569  0.48732687     0.06700
H672        H  0.10246812  0.60298265  0.45896300     0.07600
C673        C  0.14769608  0.28400313  0.45959948    -0.22000
C674        C  0.15438908  0.29831010  0.49435579     0.09900
C675        C  0.16192466  0.28279377  0.52811164     0.10300
C676        C  0.16351678  0.25319906  0.52599801    -0.16900
C677        C  0.15747920  0.23854191  0.49092431    -0.27400
C678        C  0.14890344  0.25436161  0.45735400     0.18700
C679        C  0.15434644  0.32965367  0.49423016     0.12600
C680        C  0.16837096  0.29754058  0.56631322    -0.11700
H681        H  0.16973331  0.24150645  0.55199700     0.12900
C682        C  0.14036359  0.24053328  0.41920436    -0.22500
H683        H  0.14166030  0.29622507  0.43396214     0.08600
C684        C  0.17847075  0.34511121  0.48251332     0.04900
C685        C  0.17754432  0.37475426  0.48228856    -0.19800
C686        C  0.15310058  0.38926963  0.49375950    -0.12100
C687        C  0.12894465  0.37376724  0.50567323     0.13600
C688        C  0.12986253  0.34408876  0.50564691    -0.22500
C689        C  0.20524689  0.33026575  0.47063751    -0.05600
H690        H  0.19608346  0.38674689  0.47360768     0.15100
C691        C  0.10198661  0.38785027  0.51853357    -0.15800
H692        H  0.11138900  0.33211381  0.51466058     0.09500
H693        H  0.13286641  0.25622622  0.39725769     0.07300
H694        H  0.12281271  0.22535916  0.42450448     0.08500
H695        H  0.15870819  0.22948504  0.40604530     0.07600
H696        H  0.14958289  0.30965712  0.57604385     0.02400
H697        H  0.18643214  0.31229457  0.56231912     0.02900
H698        H  0.17394844  0.28231390  0.58993787     0.06400
H699        H  0.22221253  0.34549546  0.46263824     0.05400
H700        H  0.20109720  0.31654773  0.44480726    -0.00400
H701        H  0.21299978  0.31705452  0.49536943     0.01100
H702        H  0.08431464  0.38073373  0.49943322     0.04800
H703        H  0.10306119  0.41122470  0.51686485     0.06700
H704        H  0.09725236  0.38184018  0.54940959     0.07600
C705        C  0.17427345  0.63774499  0.97395536    -0.22000
C706        C  0.15175931  0.65238704  0.99113594     0.09900
C707        C  0.12925578  0.63712259  0.00833341     0.10300
C708        C  0.12983292  0.60743562  0.00804648    -0.16900
C709        C  0.15252794  0.59273533  0.99123600    -0.27400
C710        C  0.17510547  0.60810614  0.97405407     0.18700
C711        C  0.15253577  0.68373736  0.99147750     0.12600
C712        C  0.10494860  0.65219847  0.02756137    -0.11700
H713        H  0.11269412  0.59557682  0.02138540     0.12900
C714        C  0.20068093  0.59404309  0.95642898    -0.22500
H715        H  0.19157701  0.64957568  0.96095110     0.08600
C716        C  0.16835150  0.69872099  0.01980404     0.04900
C717        C  0.16858684  0.72839708  0.01892009    -0.19800
C718        C  0.15350068  0.74353252  0.99019244    -0.12100
C719        C  0.13753865  0.72836064  0.96182905     0.13600
C720        C  0.13730194  0.69864384  0.96290640    -0.22500
C721        C  0.18473664  0.68334969  0.05118528    -0.05600
H722        H  0.18084725  0.73985312  0.04064724     0.15100
C723        C  0.11993713  0.74318876  0.93118418    -0.15800
H724        H  0.12512295  0.68689330  0.94138989     0.09500
H725        H  0.22000454  0.60158433  0.97175775     0.07300
H726        H  0.20223893  0.59966946  0.92479835     0.08500
H727        H  0.20019001  0.57070503  0.95885741     0.07600
H728        H  0.09399616  0.66568386  0.00563693     0.02400
H729        H  0.11294525  0.66566496  0.05188158     0.02900
H730        H  0.08926620  0.63711106  0.03994810     0.06400
H731        H  0.19575427  0.69823566  0.07128402     0.05400
H732        H  0.20089184  0.66959613  0.03740532    -0.00400
H733        H  0.17012849  0.67011646  0.06898468     0.01100
H734        H  0.13378813  0.75517220  0.91075986     0.04800
H735        H  0.10487470  0.75781488  0.94565381     0.06700
H736        H  0.10746690  0.72799499  0.91327603     0.07600
C737        C  0.18687370  0.34077323  0.01147850    -0.22000
C738        C  0.16309005  0.32598973  0.99782814     0.09900
C739        C  0.13901173  0.34113761  0.98537468     0.10300
C740        C  0.13937782  0.37079734  0.98666831    -0.16900
C741        C  0.16317154  0.38557961  0.00035046    -0.27400
C742        C  0.18726691  0.37041022  0.01282207     0.18700
C743        C  0.16363181  0.29463058  0.99774917     0.12600
C744        C  0.11310739  0.32603477  0.97031357    -0.11700
H745        H  0.12103050  0.38258184  0.97698181     0.12900
C746        C  0.21373277  0.38479232  0.02734974    -0.22500
H747        H  0.20526653  0.32907056  0.02120606     0.08600
C748        C  0.17880133  0.27928155  0.96921422     0.04900
C749        C  0.17844990  0.24959059  0.97043473    -0.19800
C750        C  0.16353415  0.23483342  0.99979568    -0.12100
C751        C  0.14828541  0.25040111  0.02837726     0.13600
C752        C  0.14863863  0.28006909  0.02695099    -0.22500
C753        C  0.19502595  0.29422122  0.93720467    -0.05600
H754        H  0.19007187  0.23782804  0.94845168     0.15100
C755        C  0.13075314  0.23609520  0.05966488    -0.15800
H756        H  0.13704841  0.29208715  0.04870948     0.09500
H757        H  0.23184135  0.37861173  0.00852174     0.07300
H758        H  0.21805170  0.37807415  0.05805567     0.08500
H759        H  0.21229762  0.40816014  0.02688192     0.07600
H760        H  0.10413812  0.31234705  0.99373461     0.02400
H761        H  0.11880104  0.31280689  0.94458831     0.02900
H762        H  0.09643769  0.34110872  0.96100182     0.06400
H763        H  0.20525391  0.27904799  0.91683340     0.05400
H764        H  0.21183581  0.30763310  0.95032340    -0.00400
H765        H  0.18047024  0.30771968  0.91982613     0.01100
H766        H  0.14460420  0.22406665  0.07995782     0.04800
H767        H  0.11515661  0.22161585  0.04579140     0.06700
H768        H  0.11885975  0.25161260  0.07764314     0.07600
C769        C  0.17892675  0.50538513  0.78963272    -0.22000
C770        C  0.16219759  0.48581489  0.76920376     0.09900
C771        C  0.14698745  0.46508921  0.79042572     0.10300
C772        C  0.14637910  0.46648385  0.83167080    -0.16900
C773        C  0.16247857  0.48664441  0.85231331    -0.27400
C774        C  0.18008589  0.50543075  0.83083327     0.18700
C775        C  0.16166600  0.48717759  0.72562252     0.12600
C776        C  0.13273616  0.44067261  0.76984916    -0.11700
H777        H  0.13366132  0.45142912  0.84801583     0.12900
C778        C  0.20083987  0.52529336  0.85015038    -0.22500
H779        H  0.19156797  0.52048581  0.77322065     0.08600
C780        C  0.13787581  0.49740601  0.70495716     0.04900
C781        C  0.13837231  0.49794026  0.66367568    -0.19800
C782        C  0.16284388  0.49066724  0.64269331    -0.12100
C783        C  0.18741044  0.48262060  0.66369512     0.13600
C784        C  0.18621957  0.48018814  0.70477986    -0.22500
C785        C  0.11272356  0.50945140  0.72632557    -0.05600
H786        H  0.11986105  0.50489479  0.64760149     0.15100
C787        C  0.21524318  0.47675965  0.64380760    -0.15800
H788        H  0.20482479  0.47340273  0.72080877     0.09500
H789        H  0.19491949  0.54748729  0.84353719     0.07300
H790        H  0.22234154  0.52129270  0.83837674     0.08500
H791        H  0.20200889  0.52260071  0.88245481     0.07600
H792        H  0.14873786  0.42856110  0.75304290     0.02400
H793        H  0.11628680  0.44813851  0.74920585     0.02900
H794        H  0.12253239  0.42600095  0.79109529     0.06400
H795        H  0.09650271  0.51747224  0.70553491     0.05400
H796        H  0.11970750  0.52737399  0.74504016    -0.00400
H797        H  0.10254405  0.49333073  0.74523277     0.01100
H798        H  0.23173404  0.49099417  0.65605401     0.04800
H799        H  0.21457001  0.48027214  0.61160509     0.06700
H800        H  0.22150433  0.45450709  0.64932846     0.07600
C801        C  0.13891763  0.48910545  0.20657601    -0.22000
C802        C  0.16503647  0.49418503  0.22491140     0.09900
C803        C  0.18936259  0.49825642  0.20132253     0.10300
C804        C  0.18691493  0.49669194  0.16018327    -0.16900
C805        C  0.16062417  0.49236671  0.14197678    -0.27400
C806        C  0.13622327  0.48906863  0.16552622     0.18700
C807        C  0.16603255  0.49544115  0.26869289     0.12600
C808        C  0.21769887  0.50527053  0.21916103    -0.11700
H809        H  0.20552050  0.49939065  0.14196084     0.12900
C810        C  0.10700993  0.48582536  0.14838239    -0.22500
H811        H  0.12029275  0.48559464  0.22450302     0.08600
C812        C  0.15055843  0.51583901  0.29003600     0.04900
C813        C  0.15000474  0.51444358  0.33127137    -0.19800
C814        C  0.16629978  0.49461507  0.35204936    -0.12100
C815        C  0.18381669  0.47589771  0.33059416     0.13600
C816        C  0.18227447  0.47558640  0.28937534    -0.22500
C817        C  0.13544136  0.53973450  0.26960596    -0.05600
H818        H  0.13704472  0.52922153  0.34752966     0.15100
C819        C  0.20487998  0.45650180  0.34998284    -0.15800
H820        H  0.19422338  0.45991955  0.27324907     0.09500
H821        H  0.10673961  0.48679071  0.11583235     0.07300
H822        H  0.09788723  0.46521055  0.15760390     0.08500
H823        H  0.09330302  0.50308278  0.15943644     0.07600
H824        H  0.22549323  0.48736830  0.23712576     0.02400
H825        H  0.21583740  0.52437610  0.23788812     0.02900
H826        H  0.23383978  0.50964766  0.19622825     0.06400
H827        H  0.12619981  0.55482340  0.29098970     0.05400
H828        H  0.11793530  0.53157372  0.25116214    -0.00400
H829        H  0.15060782  0.55159547  0.25085790     0.01100
H830        H  0.19902777  0.43416197  0.34409393     0.04800
H831        H  0.20638626  0.45963191  0.38218012     0.06700
H832        H  0.22622724  0.46063209  0.33765350     0.07600
C833        C  0.29290730  0.13781996  0.46820359    -0.22000
C834        C  0.30675445  0.15201233  0.49879662     0.09900
C835        C  0.29074000  0.16660326  0.52714406     0.10300
C836        C  0.26110721  0.16679554  0.52412561    -0.16900
C837        C  0.24701151  0.15296343  0.49312258    -0.27400
C838        C  0.26326927  0.13803632  0.46494448     0.18700
C839        C  0.33810514  0.15148431  0.50030542     0.12600
C840        C  0.30498151  0.18182975  0.56064447    -0.11700
H841        H  0.24888370  0.17805914  0.54597887     0.12900
C842        C  0.24969076  0.12152071  0.43207076    -0.22500
H843        H  0.30544558  0.12649278  0.44675032     0.08600
C844        C  0.35286189  0.12872696  0.51751861     0.04900
C845        C  0.38254726  0.12894057  0.51747448    -0.19800
C846        C  0.39776036  0.15147908  0.50081259    -0.12100
C847        C  0.38293763  0.17452376  0.48419200     0.13600
C848        C  0.35327273  0.17410844  0.48391334    -0.22500
C849        C  0.33725427  0.10435383  0.53608615    -0.05600
H850        H  0.39401132  0.11142564  0.53037831     0.15100
C851        C  0.39768833  0.19999612  0.46705110    -0.15800
H852        H  0.34184931  0.19164383  0.47097087     0.09500
H853        H  0.23452007  0.10587896  0.44431071     0.07300
H854        H  0.26556736  0.10977878  0.41451083     0.08500
H855        H  0.23853788  0.13607675  0.41176172     0.07600
H856        H  0.31919378  0.19854745  0.54893504     0.02400
H857        H  0.31760188  0.16663973  0.57824822     0.02900
H858        H  0.28939981  0.19198441  0.58048107     0.06400
H859        H  0.35199218  0.08844581  0.54852215     0.05400
H860        H  0.32384264  0.09371093  0.51374527    -0.00400
H861        H  0.32365244  0.11221692  0.56027357     0.01100
H862        H  0.39215431  0.20201846  0.43544747     0.04800
H863        H  0.42100936  0.19894001  0.46951697     0.06700
H864        H  0.39065195  0.21929624  0.48274051     0.07600
C865        C  0.64921442  0.16867641  0.51893386    -0.22000
C866        C  0.66421751  0.14648737  0.50152847     0.09900
C867        C  0.64938322  0.12386754  0.48394452     0.10300
C868        C  0.61974108  0.12400354  0.48405365    -0.16900
C869        C  0.60470019  0.14626854  0.50128551    -0.27400
C870        C  0.61958701  0.16896219  0.51886614     0.18700
C871        C  0.69549806  0.14731514  0.50199776     0.12600
C872        C  0.66485234  0.09982612  0.46463973    -0.11700
H873        H  0.60817678  0.10672685  0.47058666     0.12900
C874        C  0.60495966  0.19393879  0.53725170    -0.22500
H875        H  0.66073006  0.18599513  0.53240188     0.08600
C876        C  0.71088573  0.16442799  0.47554238     0.04900
C877        C  0.74054394  0.16390838  0.47650598    -0.19800
C878        C  0.75511339  0.14679385  0.50348532    -0.12100
C879        C  0.73958700  0.12941361  0.52968830     0.13600
C880        C  0.70993923  0.13007189  0.52875586    -0.22500
C881        C  0.69599605  0.18284758  0.44594434    -0.05600
H882        H  0.75244026  0.17706702  0.45626264     0.15100
C883        C  0.75404230  0.10921785  0.55743628    -0.15800
H884        H  0.69787514  0.11680707  0.54867071     0.09500
H885        H  0.61207689  0.21366875  0.52251537     0.07300
H886        H  0.61052534  0.19510161  0.56892735     0.08500
H887        H  0.58163404  0.19295892  0.53479387     0.07600
H888        H  0.67811093  0.08869196  0.48664074     0.02400
H889        H  0.67856174  0.10813754  0.44076451     0.02900
H890        H  0.65002275  0.08416705  0.45165037     0.06400
H891        H  0.71120072  0.19449861  0.42699659     0.05400
H892        H  0.68268300  0.19860396  0.46135089    -0.00400
H893        H  0.68239559  0.16958629  0.42672586     0.01100
H894        H  0.73857019  0.09603798  0.57387484     0.04800
H895        H  0.76673583  0.12110664  0.57932731     0.06700
H896        H  0.76800408  0.09479967  0.54062008     0.07600
C897        C  0.29311756  0.13224749  0.97339516    -0.22000
C898        C  0.30702184  0.14584266  0.00445696     0.09900
C899        C  0.29109596  0.15827334  0.03481669     0.10300
C900        C  0.26147755  0.15807008  0.03244831    -0.16900
C901        C  0.24734850  0.14549828  0.00052690    -0.27400
C902        C  0.26346158  0.13159381  0.97119699     0.18700
C903        C  0.33831186  0.14729060  0.00416470     0.12600
C904        C  0.30540894  0.17157262  0.06979668    -0.11700
H905        H  0.24931131  0.16820508  0.05540916     0.12900
C906        C  0.24973896  0.11517353  0.93831058    -0.22500
H907        H  0.30560675  0.12219879  0.95068312     0.08600
C908        C  0.35498991  0.12453792  0.01742340     0.04900
C909        C  0.38455460  0.12676849  0.01574565    -0.19800
C910        C  0.39774062  0.15130434  0.00138296    -0.12100
C911        C  0.38100631  0.17439517  0.98906595     0.13600
C912        C  0.35145109  0.17196796  0.99027235    -0.22500
C913        C  0.34156184  0.09809975  0.03367843    -0.05600
H914        H  0.39751885  0.10929823  0.02564741     0.15100
C915        C  0.39359948  0.20193818  0.97517671    -0.15800
H916        H  0.33852301  0.18952286  0.98053385     0.09500
H917        H  0.23504011  0.09912435  0.95070545     0.07300
H918        H  0.26560413  0.10388813  0.92015586     0.08500
H919        H  0.23805867  0.12964968  0.91848992     0.07600
H920        H  0.31916140  0.18927811  0.06001651     0.02400
H921        H  0.31850233  0.15554424  0.08514367     0.02900
H922        H  0.28985362  0.18003171  0.09116499     0.06400
H923        H  0.35766557  0.08249775  0.04322872     0.05400
H924        H  0.32813116  0.08803522  0.01085115    -0.00400
H925        H  0.32829227  0.10347135  0.05950252     0.01100
H926        H  0.38680419  0.20612297  0.94447384     0.04800
H927        H  0.41701315  0.20209016  0.97598350     0.06700
H928        H  0.38604278  0.21937225  0.99426283     0.07600
C929        C  0.64987988  0.17124520  0.01584015    -0.22000
C930        C  0.66471676  0.14845903  0.99974216     0.09900
C931        C  0.64970828  0.12489246  0.98511017     0.10300
C932        C  0.62001803  0.12496222  0.98606241    -0.16900
C933        C  0.60511274  0.14779981  0.00214000    -0.27400
C934        C  0.62025495  0.17116733  0.01749833     0.18700
C935        C  0.69602816  0.14923941  0.00025955     0.12600
C936        C  0.66507603  0.09964489  0.96889540    -0.11700
H937        H  0.60832972  0.10706522  0.97450597     0.12900
C938        C  0.60592138  0.19634731  0.03573809    -0.22500
H939        H  0.66154191  0.18914662  0.02747559     0.08600
C940        C  0.71172064  0.16171237  0.96956673     0.04900
C941        C  0.74134136  0.16234454  0.97202911    -0.19800
C942        C  0.75576199  0.15072214  0.00446890    -0.12100
C943        C  0.73977778  0.13791937  0.03506006     0.13600
C944        C  0.71014238  0.13751742  0.03252188    -0.22500
C945        C  0.69720299  0.17420694  0.93418133    -0.05600
H946        H  0.75328397  0.17209616  0.94842326     0.15100
C947        C  0.75352284  0.12380066  0.06989714    -0.15800
H948        H  0.69778757  0.12786219  0.05580743     0.09500
H949        H  0.61209721  0.21581036  0.01957565     0.07300
H950        H  0.61270743  0.19838460  0.06687044     0.08500
H951        H  0.58256045  0.19487338  0.03519179     0.07600
H952        H  0.67877490  0.09036645  0.99203990     0.02400
H953        H  0.67837912  0.10616397  0.94357128     0.02900
H954        H  0.65017677  0.08300104  0.95872478     0.06400
H955        H  0.71260918  0.18301749  0.91275495     0.05400
H956        H  0.68294615  0.19152114  0.94354561    -0.00400
H957        H  0.68459472  0.15765011  0.91904682     0.01100
H958        H  0.73771497  0.11352940  0.08942326     0.04800
H959        H  0.76506019  0.13968251  0.08778361     0.06700
H960        H  0.76830563  0.10718390  0.05964958     0.07600
C961        C  0.51861989  0.16848842  0.70783151    -0.22000
C962        C  0.50341752  0.14801426  0.72893004     0.09900
C963        C  0.48701880  0.12789516  0.70832982     0.10300
C964        C  0.48705412  0.12810797  0.66699881    -0.16900
C965        C  0.50232836  0.14855077  0.64576432    -0.27400
C966        C  0.51800932  0.16928328  0.66655577     0.18700
C967        C  0.50377940  0.14903161  0.77258361     0.12600
C968        C  0.46868419  0.10688118  0.72989212    -0.11700
H969        H  0.47480861  0.11246828  0.65106266     0.12900
C970        C  0.53374883  0.19293510  0.64632266    -0.22500
H971        H  0.53069249  0.18428245  0.72375649     0.08600
C972        C  0.52078582  0.13065964  0.79511469     0.04900
C973        C  0.51919367  0.13162635  0.83634112    -0.19800
C974        C  0.50227426  0.15164702  0.85568577    -0.12100
C975        C  0.48690787  0.17146876  0.83287928     0.13600
C976        C  0.48728000  0.16936792  0.79169432    -0.22500
C977        C  0.54137417  0.11082087  0.77576974    -0.05600
H978        H  0.53156520  0.11694081  0.85370142     0.15100
C979        C  0.47059025  0.19555666  0.85075149    -0.15800
H980        H  0.47497565  0.18407762  0.77425754     0.09500
H981        H  0.55663420  0.19134920  0.65317476     0.07300
H982        H  0.52578311  0.21355497  0.65715354     0.08500
H983        H  0.53118866  0.19280742  0.61395697     0.07600
H984        H  0.45312262  0.11831473  0.74833763     0.02400
H985        H  0.48171007  0.09315927  0.74905744     0.02900
H986        H  0.45683201  0.09305182  0.70925704     0.06400
H987        H  0.55348474  0.09842625  0.79779544     0.05400
H988        H  0.55668182  0.12318563  0.75790328    -0.00400
H989        H  0.53014978  0.09572901  0.75634432     0.01100
H990        H  0.47834392  0.21586264  0.83831269     0.04800
H991        H  0.47294993  0.19690261  0.88308651     0.06700
H992        H  0.44780307  0.19317771  0.84364081     0.07600
C993        C  0.48451332  0.16947868  0.29273458    -0.22000
C994        C  0.50048863  0.14950389  0.27215721     0.09900
C995        C  0.51730157  0.13007141  0.29312238     0.10300
C996        C  0.51688153  0.13033667  0.33440050    -0.16900
C997        C  0.50084600  0.15028621  0.35527720    -0.27400
C998        C  0.48485498  0.17050593  0.33399282     0.18700
C999        C  0.49992796  0.14979472  0.22858306     0.12600
C1000       C  0.53602538  0.10940695  0.27189273    -0.11700
H1001       H  0.52932339  0.11503168  0.35057907     0.12900
C1002       C  0.46846069  0.19384884  0.35357879    -0.22500
H1003       H  0.47204188  0.18470053  0.27641807     0.08600
C1004       C  0.48179376  0.13181037  0.20712156     0.04900
C1005       C  0.48295176  0.13201800  0.16586254    -0.19800
C1006       C  0.50105495  0.15058793  0.14554124    -0.12100
C1007       C  0.51811536  0.16969248  0.16726726     0.13600
C1008       C  0.51774298  0.16858659  0.20849911    -0.22500
C1009       C  0.46092591  0.11281075  0.22778257    -0.05600
H1010       H  0.46950826  0.11777464  0.14926721     0.15100
C1011       C  0.53644692  0.19192025  0.14814702    -0.15800
H1012       H  0.53119582  0.18278246  0.22517993     0.09500
H1013       H  0.44559402  0.19120204  0.34715643     0.07300
H1014       H  0.47560517  0.21458576  0.34184392     0.08500
H1015       H  0.47135480  0.19447710  0.38586651     0.07600
H1016       H  0.55136710  0.12110259  0.25322955     0.02400
H1017       H  0.52310760  0.09531142  0.25298445     0.02900
H1018       H  0.54813936  0.09600037  0.29272516     0.06400
H1019       H  0.44807582  0.10037475  0.20659313     0.05400
H1020       H  0.44632530  0.12579215  0.24576725    -0.00400
H1021       H  0.47217592  0.09777942  0.24728797     0.01100
H1022       H  0.53060319  0.21306824  0.15961834     0.04800
H1023       H  0.53411204  0.19274247  0.11577481     0.06700
H1024       H  0.55896585  0.18780581  0.15527244     0.07600
C1025       C  0.82958546  0.27763089  0.46426837    -0.22000
C1026       C  0.84360323  0.29219987  0.49433074     0.09900
C1027       C  0.85584562  0.27705667  0.52566655     0.10300
C1028       C  0.85443998  0.24744020  0.52572440    -0.16900
C1029       C  0.84078252  0.23255218  0.49536285    -0.27400
C1030       C  0.82785577  0.24797486  0.46438365     0.18700
C1031       C  0.84435219  0.32344055  0.49323053     0.12600
C1032       C  0.87000649  0.29221590  0.55931447    -0.11700
H1033       H  0.86419651  0.23584548  0.54962339     0.12900
C1034       C  0.81130083  0.23361444  0.43216210    -0.22500
H1035       H  0.81980982  0.28960784  0.44073837     0.08600
C1036       C  0.86738667  0.33833130  0.47681214     0.04900
C1037       C  0.86762856  0.36798789  0.47820740    -0.19800
C1038       C  0.84494858  0.38294369  0.49461863    -0.12100
C1039       C  0.82129549  0.36793900  0.50939702     0.13600
C1040       C  0.82152628  0.33833321  0.50905119    -0.22500
C1041       C  0.89140193  0.32291263  0.45736915    -0.05600
H1042       H  0.88538413  0.37962291  0.46610917     0.15100
C1043       C  0.79526636  0.38241754  0.52495792    -0.15800
H1044       H  0.80365845  0.32673989  0.52094906     0.09500
H1045       H  0.80103487  0.24915176  0.41228106     0.07300
H1046       H  0.79442017  0.22019400  0.44518708     0.08500
H1047       H  0.82554606  0.22048341  0.41390470     0.07600
H1048       H  0.85455524  0.30627223  0.57405718     0.02400
H1049       H  0.88793040  0.30514256  0.54827229     0.02900
H1050       H  0.87834692  0.27719911  0.58157120     0.06400
H1051       H  0.90750825  0.33778035  0.44553563     0.05400
H1052       H  0.88315155  0.31005579  0.43257583    -0.00400
H1053       H  0.90192458  0.30875823  0.47885086     0.01100
H1054       H  0.77654343  0.37542557  0.50778916     0.04800
H1055       H  0.79637080  0.40576255  0.52293477     0.06700
H1056       H  0.79211652  0.37657460  0.55627688     0.07600
C1057       C  0.80983775  0.63572721  0.48776810    -0.22000
C1058       C  0.83316825  0.64935529  0.50484478     0.09900
C1059       C  0.85551779  0.63311075  0.52031250     0.10300
C1060       C  0.85403938  0.60352726  0.51840211    -0.16900
C1061       C  0.83077845  0.58979712  0.50124831    -0.27400
C1062       C  0.80828049  0.60610333  0.48585553     0.18700
C1063       C  0.83378139  0.68068965  0.50643933     0.12600
C1064       C  0.88104205  0.64704087  0.53843202    -0.11700
H1065       H  0.87128926  0.59096155  0.52993252     0.12900
C1066       C  0.78243366  0.59300326  0.46733985    -0.22500
H1067       H  0.79270794  0.64831078  0.47592797     0.08600
C1068       C  0.84432684  0.69695124  0.47494370     0.04900
C1069       C  0.84474497  0.72656288  0.47797906    -0.19800
C1070       C  0.83491681  0.74047633  0.51189183    -0.12100
C1071       C  0.82431764  0.72389651  0.54355313     0.13600
C1072       C  0.82392418  0.69425344  0.54028838    -0.22500
C1073       C  0.85518074  0.68298674  0.43817459    -0.05600
H1074       H  0.85295200  0.73891076  0.45365046     0.15100
C1075       C  0.81260814  0.73701693  0.58044932    -0.15800
H1076       H  0.81584775  0.68147802  0.56429477     0.09500
H1077       H  0.78107098  0.59958571  0.43604417     0.07300
H1078       H  0.76324073  0.60035960  0.48298774     0.08500
H1079       H  0.78250213  0.56960075  0.46852777     0.07600
H1080       H  0.87449874  0.65998266  0.56403246     0.02400
H1081       H  0.89153094  0.66088152  0.51642640     0.02900
H1082       H  0.89671056  0.63125102  0.54876325     0.06400
H1083       H  0.86289987  0.69873168  0.41640509     0.05400
H1084       H  0.83798625  0.67049492  0.42425597    -0.00400
H1085       H  0.87296297  0.66868920  0.44559823     0.01100
H1086       H  0.80394665  0.72083454  0.60088879     0.04800
H1087       H  0.79520738  0.75174716  0.57285834     0.06700
H1088       H  0.82957805  0.74851024  0.59636761     0.07600
C1089       C  0.86039743  0.34365868  0.01254408    -0.22000
C1090       C  0.83500159  0.32873465  0.00804285     0.09900
C1091       C  0.80961489  0.34360769  0.00152856     0.10300
C1092       C  0.81030644  0.37325168  0.99907813    -0.16900
C1093       C  0.83581900  0.38817707  0.00314889    -0.27400
C1094       C  0.86116794  0.37321348  0.01012349     0.18700
C1095       C  0.83595206  0.29745605  0.00798108     0.12600
C1096       C  0.78196553  0.32814472  0.99678526    -0.11700
H1097       H  0.79095796  0.38487367  0.99386242     0.12900
C1098       C  0.88940059  0.38769980  0.01471684    -0.22500
H1099       H  0.87984951  0.33209394  0.01735550     0.08600
C1100       C  0.84224740  0.28249997  0.97336264     0.04900
C1101       C  0.84401316  0.25295103  0.97458084    -0.19800
C1102       C  0.83938255  0.23768975  0.00960655    -0.12100
C1103       C  0.83290126  0.25297456  0.04448720     0.13600
C1104       C  0.83139558  0.28267055  0.04308800    -0.22500
C1105       C  0.84690647  0.29779685  0.93499474    -0.05600
H1106       H  0.84900553  0.24175038  0.94772237     0.15100
C1107       C  0.82701710  0.23852870  0.08318683    -0.15800
H1108       H  0.82660688  0.29451015  0.06951264     0.09500
H1109       H  0.90402855  0.38014744  0.99150610     0.07300
H1110       H  0.89844930  0.38245644  0.04394721     0.08500
H1111       H  0.88811796  0.41102506  0.01242988     0.07600
H1112       H  0.77740886  0.31566334  0.02372375     0.02400
H1113       H  0.78313148  0.31364330  0.97121575     0.02900
H1114       H  0.76414289  0.34295603  0.99185559     0.06400
H1115       H  0.85147676  0.28293249  0.91058805     0.05400
H1116       H  0.86507732  0.31255938  0.93776983    -0.00400
H1117       H  0.82769446  0.30996558  0.92711277     0.01100
H1118       H  0.84606836  0.22694090  0.09321306     0.04800
H1119       H  0.80891831  0.22371233  0.07996458     0.06700
H1120       H  0.82146963  0.25389436  0.10658882     0.07600
C1121       C  0.81604235  0.63870671  0.00515726    -0.22000
C1122       C  0.84015358  0.65474697  0.99625485     0.09900
C1123       C  0.86576524  0.64094404  0.98738899     0.10300
C1124       C  0.86657696  0.61127405  0.98688905    -0.16900
C1125       C  0.84246103  0.59519225  0.99576184    -0.27400
C1126       C  0.81688416  0.60905536  0.00521205     0.18700
C1127       C  0.83832898  0.68602206  0.99705924     0.12600
C1128       C  0.89222932  0.65759188  0.97878560    -0.11700
H1129       H  0.88614635  0.60052198  0.98000306     0.12900
C1130       C  0.79016705  0.59324571  0.01546624    -0.22500
H1131       H  0.79647206  0.64941077  0.01225004     0.08600
C1132       C  0.83021141  0.70164543  0.96365060     0.04900
C1133       C  0.82967992  0.73130641  0.96557791    -0.19800
C1134       C  0.83714322  0.74588093  0.00021005    -0.12100
C1135       C  0.84527597  0.72987168  0.03380035     0.13600
C1136       C  0.84560369  0.70020794  0.03167286    -0.22500
C1137       C  0.82237922  0.68695216  0.92589673    -0.05600
H1138       H  0.82337792  0.74313695  0.93973667     0.15100
C1139       C  0.85449512  0.74352625  0.07175754    -0.15800
H1140       H  0.85194482  0.68788748  0.05707368     0.09500
H1141       H  0.77319965  0.59911405  0.99445190     0.07300
H1142       H  0.78341396  0.59904716  0.04564707     0.08500
H1143       H  0.79265057  0.56997892  0.01441268     0.07600
H1144       H  0.89784417  0.67077844  0.00462992     0.02400
H1145       H  0.88875904  0.67152180  0.95295446     0.02900
H1146       H  0.91039636  0.64355688  0.97226764     0.06400
H1147       H  0.81667056  0.70225373  0.90242845     0.05400
H1148       H  0.80397362  0.67279803  0.93095506    -0.00400
H1149       H  0.84049050  0.67419130  0.91533010     0.01100
H1150       H  0.83663875  0.75534603  0.08491983     0.04800
H1151       H  0.87260330  0.75798112  0.06621339     0.06700
H1152       H  0.86143759  0.72765290  0.09380562     0.07600
C1153       C  0.85701160  0.50561588  0.70468209    -0.22000
C1154       C  0.84068945  0.48580773  0.72542181     0.09900
C1155       C  0.82496777  0.46542538  0.70420284     0.10300
C1156       C  0.82564430  0.46574591  0.66286816    -0.16900
C1157       C  0.84276740  0.48497555  0.64207103    -0.27400
C1158       C  0.85919545  0.50477941  0.66357447     0.18700
C1159       C  0.84126074  0.48636746  0.76924540     0.12600
C1160       C  0.80810826  0.44280733  0.72494229    -0.11700
H1161       H  0.81289252  0.45070661  0.64658939     0.12900
C1162       C  0.87976545  0.52494926  0.64443064    -0.22500
H1163       H  0.86888362  0.52143108  0.72084645     0.08600
C1164       C  0.86641018  0.48110583  0.79055972     0.04900
C1165       C  0.86615619  0.48293571  0.83177642    -0.19800
C1166       C  0.84111583  0.48845638  0.85241488    -0.12100
C1167       C  0.81567566  0.49235787  0.83119171     0.13600
C1168       C  0.81629260  0.49223733  0.78992296    -0.22500
C1169       C  0.89329888  0.47248777  0.77011499    -0.05600
H1170       H  0.88548290  0.47941021  0.84817463     0.15100
C1171       C  0.78750213  0.49631800  0.85108889    -0.15800
H1172       H  0.79700073  0.49640379  0.77375507     0.09500
H1173       H  0.90101364  0.52215163  0.65773455     0.07300
H1174       H  0.87276704  0.54703476  0.64941477     0.08500
H1175       H  0.88208891  0.52147409  0.61241405     0.07600
H1176       H  0.79063007  0.45238499  0.74196008     0.02400
H1177       H  0.82207911  0.43077792  0.74512748     0.02900
H1178       H  0.79859153  0.42761581  0.70383425     0.06400
H1179       H  0.91031133  0.46739792  0.79146927     0.05400
H1180       H  0.90116482  0.48981745  0.75105967    -0.00400
H1181       H  0.88932214  0.45338386  0.75197720     0.01100
H1182       H  0.77864610  0.51721489  0.84289377     0.04800
H1183       H  0.77268976  0.47949896  0.84126433     0.06700
H1184       H  0.78880773  0.49516420  0.88357823     0.07600
C1185       C  0.85440557  0.47333468  0.20541069    -0.22000
C1186       C  0.83762357  0.49305171  0.22517335     0.09900
C1187       C  0.82331114  0.51409258  0.20359022     0.10300
C1188       C  0.82390009  0.51312991  0.16237527    -0.16900
C1189       C  0.84072490  0.49337403  0.14233383    -0.27400
C1190       C  0.85700154  0.47384510  0.16441041     0.18700
C1191       C  0.83690556  0.49206607  0.26860447     0.12600
C1192       C  0.80896731  0.53848972  0.22383651    -0.11700
H1193       H  0.81181471  0.52840854  0.14563637     0.12900
C1194       C  0.87785405  0.45374735  0.14606086    -0.22500
H1195       H  0.86624131  0.45790358  0.22227332     0.08600
C1196       C  0.81310667  0.48186851  0.28933374     0.04900
C1197       C  0.81370847  0.48154926  0.33059105    -0.19800
C1198       C  0.83829458  0.48905398  0.35131609    -0.12100
C1199       C  0.86267339  0.49758171  0.33025387     0.13600
C1200       C  0.86139615  0.49966322  0.28923820    -0.22500
C1201       C  0.78782736  0.46978696  0.26808174    -0.05600
H1202       H  0.79523815  0.47459600  0.34682553     0.15100
C1203       C  0.89037758  0.50449105  0.35002455    -0.15800
H1204       H  0.87989396  0.50668200  0.27308502     0.09500
H1205       H  0.87095203  0.43162463  0.15145081     0.07300
H1206       H  0.89897098  0.45694921  0.15963761     0.08500
H1207       H  0.88045270  0.45691962  0.11401298     0.07600
H1208       H  0.82472576  0.55026313  0.24169674     0.02400
H1209       H  0.79184908  0.53101047  0.24343753     0.02900
H1210       H  0.79960055  0.55347210  0.20233631     0.06400
H1211       H  0.77157067  0.46187904  0.28895271     0.05400
H1212       H  0.79462576  0.45179072  0.24946961    -0.00400
H1213       H  0.77777585  0.48588251  0.24908602     0.01100
H1214       H  0.90723725  0.49078065  0.33786600     0.04800
H1215       H  0.88992553  0.50113468  0.38226151     0.06700
H1216       H  0.89597778  0.52692749  0.34427274     0.07600
C1217       C  0.28768741  0.84495318  0.46745250    -0.22000
C1218       C  0.30148395  0.83723227  0.50222237     0.09900
C1219       C  0.28551103  0.82992734  0.53564663     0.10300
C1220       C  0.25590914  0.82986481  0.53328671    -0.16900
C1221       C  0.24172466  0.83690178  0.49817472    -0.27400
C1222       C  0.25803919  0.84504580  0.46489323     0.18700
C1223       C  0.33275939  0.83662429  0.50282589     0.12600
C1224       C  0.29976786  0.82176343  0.57360892    -0.11700
H1225       H  0.24382871  0.82381557  0.55902731     0.12900
C1226       C  0.24473131  0.85448318  0.42679848    -0.22500
H1227       H  0.30029776  0.85083080  0.44210298     0.08600
C1228       C  0.34782664  0.81332128  0.48787219     0.04900
C1229       C  0.37743999  0.81360981  0.48910954    -0.19800
C1230       C  0.39228386  0.83666727  0.50491981    -0.12100
C1231       C  0.37714968  0.86001838  0.51997738     0.13600
C1232       C  0.34751190  0.85966286  0.51873227    -0.22500
C1233       C  0.33263113  0.78807003  0.47102119    -0.05600
H1234       H  0.38916399  0.79573672  0.47778653     0.15100
C1235       C  0.39151568  0.88562278  0.53722817    -0.15800
H1236       H  0.33579334  0.87750349  0.53018309     0.09500
H1237       H  0.23291606  0.83671089  0.41321036     0.07300
H1238       H  0.26082698  0.86158056  0.40513306     0.08500
H1239       H  0.23031972  0.87253063  0.43230173     0.07600
H1240       H  0.31301587  0.83956642  0.58431918     0.02400
H1241       H  0.31335849  0.80300208  0.56876751     0.02900
H1242       H  0.28418647  0.81646187  0.59690959     0.06400
H1243       H  0.34762378  0.77152896  0.46111812     0.05400
H1244       H  0.31974727  0.79463783  0.44532379    -0.00400
H1245       H  0.31857573  0.77865051  0.49368404     0.01100
H1246       H  0.38507415  0.90476322  0.52060355     0.04800
H1247       H  0.41487853  0.88435142  0.53621691     0.06700
H1248       H  0.38503911  0.88806357  0.56841107     0.07600
C1249       C  0.64393501  0.84228484  0.49610491    -0.22000
C1250       C  0.65851299  0.81795784  0.50772208     0.09900
C1251       C  0.64330784  0.79310746  0.51696931     0.10300
C1252       C  0.61365059  0.79327596  0.51474840    -0.16900
C1253       C  0.59902888  0.81778964  0.50360969    -0.27400
C1254       C  0.61436248  0.84258146  0.49404622     0.18700
C1255       C  0.68976642  0.81912087  0.50975288     0.12600
C1256       C  0.65840186  0.76660247  0.52946703    -0.11700
H1257       H  0.60175726  0.77441797  0.52229690     0.12900
C1258       C  0.60023501  0.86985804  0.48236320    -0.22500
H1259       H  0.65574982  0.86128134  0.48893064     0.08600
C1260       C  0.70644795  0.81312834  0.47660292     0.04900
C1261       C  0.73594245  0.81493970  0.47953833    -0.19800
C1262       C  0.74942543  0.82325367  0.51467012    -0.12100
C1263       C  0.73239121  0.82990819  0.54779934     0.13600
C1264       C  0.70279156  0.82750542  0.54487052    -0.22500
C1265       C  0.69306197  0.80518271  0.43792966    -0.05600
H1266       H  0.74851427  0.80986891  0.45390624     0.15100
C1267       C  0.74484453  0.84039770  0.58589690    -0.15800
H1268       H  0.68962490  0.83252665  0.56996761     0.09500
H1269       H  0.60724497  0.87602358  0.45239907     0.07300
H1270       H  0.60636535  0.88676765  0.50333521     0.08500
H1271       H  0.57686225  0.86849184  0.48217011     0.07600
H1272       H  0.67087323  0.77078700  0.55651026     0.02400
H1273       H  0.67287105  0.75958111  0.50576850     0.02900
H1274       H  0.64335420  0.74911007  0.53577446     0.06400
H1275       H  0.70915521  0.80122195  0.41484520     0.05400
H1276       H  0.67922455  0.82260185  0.42764123    -0.00400
H1277       H  0.68020305  0.78569288  0.44150814     0.01100
H1278       H  0.72820084  0.84589614  0.60757785     0.04800
H1279       H  0.75764510  0.85972047  0.58041451     0.06700
H1280       H  0.75819962  0.82375412  0.59935997     0.07600
C1281       C  0.28721048  0.80510756  0.96951883    -0.22000
C1282       C  0.30191618  0.82086721  0.99782396     0.09900
C1283       C  0.28684175  0.83822753  0.02409858     0.10300
C1284       C  0.25730252  0.83950995  0.02143282    -0.16900
C1285       C  0.24243631  0.82400397  0.99289832    -0.27400
C1286       C  0.25758847  0.80640918  0.96671317     0.18700
C1287       C  0.33319777  0.81966077  0.99887355     0.12600
C1288       C  0.30194292  0.85517614  0.05520561    -0.11700
H1289       H  0.24572856  0.85287428  0.04162568     0.12900
C1290       C  0.24268514  0.78822881  0.93677504    -0.22500
H1291       H  0.29901404  0.79178077  0.94954407     0.08600
C1292       C  0.34774505  0.79743298  0.01770665     0.04900
C1293       C  0.37743392  0.79812057  0.01937066    -0.19800
C1294       C  0.39276387  0.82064235  0.00281254    -0.12100
C1295       C  0.37803224  0.84288260  0.98391454     0.13600
C1296       C  0.34847666  0.84192342  0.98191714    -0.22500
C1297       C  0.33189567  0.77325910  0.03637393    -0.05600
H1298       H  0.38877981  0.78107920  0.03362609     0.15100
C1299       C  0.39266633  0.86820444  0.96611619    -0.15800
H1300       H  0.33716705  0.85899625  0.96762533     0.09500
H1301       H  0.22711892  0.77424890  0.95169719     0.07300
H1302       H  0.25772128  0.77461122  0.92045907     0.08500
H1303       H  0.23168035  0.80173303  0.91495038     0.07600
H1304       H  0.31664277  0.87048487  0.04119369     0.02400
H1305       H  0.31412097  0.84078340  0.07462836     0.02900
H1306       H  0.28693769  0.86726475  0.07375701     0.06400
H1307       H  0.34645475  0.75778800  0.05020757     0.05400
H1308       H  0.31925546  0.76200650  0.01374213    -0.00400
H1309       H  0.31752175  0.78144332  0.05946995     0.01100
H1310       H  0.38834320  0.86890083  0.93403668     0.04800
H1311       H  0.41585448  0.86813844  0.97048699     0.06700
H1312       H  0.38439370  0.88779480  0.97980952     0.07600
C1313       C  0.64421574  0.81054829  0.98317376    -0.22000
C1314       C  0.65979371  0.83273012  0.99986108     0.09900
C1315       C  0.64543548  0.85579667  0.01684064     0.10300
C1316       C  0.61573219  0.85601550  0.01713381    -0.16900
C1317       C  0.60006726  0.83362347  0.00094188    -0.27400
C1318       C  0.61453712  0.81062732  0.98354323     0.18700
C1319       C  0.69115650  0.83153867  0.99895632     0.12600
C1320       C  0.66151664  0.87999431  0.03500424    -0.11700
H1321       H  0.60461073  0.87359464  0.03034451     0.12900
C1322       C  0.59945632  0.78562185  0.96566502    -0.22500
H1323       H  0.65532401  0.79292451  0.97001749     0.08600
C1324       C  0.70664368  0.81635131  0.02740881     0.04900
C1325       C  0.73634487  0.81663311  0.02596778    -0.19800
C1326       C  0.75098311  0.83145878  0.99638744    -0.12100
C1327       C  0.73527671  0.84654672  0.96771613     0.13600
C1328       C  0.70558892  0.84634336  0.96943661    -0.22500
C1329       C  0.69178758  0.80008708  0.05944825    -0.05600
H1330       H  0.74820800  0.80503704  0.04794178     0.15100
C1331       C  0.74951728  0.86384517  0.93613337    -0.15800
H1332       H  0.69347423  0.85802919  0.94781879     0.09500
H1333       H  0.60630769  0.76595965  0.98071361     0.07300
H1334       H  0.57616111  0.78683105  0.96814890     0.08500
H1335       H  0.60492333  0.78411331  0.93399296     0.07600
H1336       H  0.67500077  0.89032442  0.01244603     0.02400
H1337       H  0.67508988  0.87201261  0.05920754     0.02900
H1338       H  0.64709556  0.89620671  0.04729821     0.06400
H1339       H  0.70700458  0.78957635  0.07954576     0.20600
H1340       H  0.67808794  0.78353135  0.04625504    -0.00400
H1341       H  0.67855772  0.81465838  0.07711569     0.01100
H1342       H  0.73396384  0.87562556  0.91799744     0.04800
H1343       H  0.76150434  0.84984722  0.91606508     0.06700
H1344       H  0.76404537  0.87950731  0.94975083     0.07600
C1345       C  0.51569659  0.81111850  0.79734704    -0.22000
C1346       C  0.49541330  0.82676604  0.77677583     0.09900
C1347       C  0.47440337  0.84154039  0.79773874     0.10300
C1348       C  0.47566419  0.84222907  0.83894773    -0.16900
C1349       C  0.49601235  0.82658130  0.85978058    -0.27400
C1350       C  0.51573584  0.81005885  0.83853421     0.18700
C1351       C  0.49604066  0.82645011  0.73327004     0.12600
C1352       C  0.44981446  0.85519145  0.77687605    -0.11700
H1353       H  0.46015556  0.85435742  0.85513716     0.12900
C1354       C  0.53655533  0.79043221  0.85803868    -0.22500
H1355       H  0.53121100  0.79904790  0.78105549     0.08600
C1356       C  0.50527517  0.85013893  0.71145265     0.04900
C1357       C  0.50410549  0.84922516  0.67026945    -0.19800
C1358       C  0.49611208  0.82444441  0.65044185    -0.12100
C1359       C  0.48904148  0.79999302  0.67242895     0.13600
C1360       C  0.48836841  0.80156215  0.71358600    -0.22500
C1361       C  0.51794789  0.87565806  0.73142039    -0.05600
H1362       H  0.51039418  0.86760843  0.65329833     0.15100
C1363       C  0.48240070  0.77194619  0.65351557    -0.15800
H1364       H  0.48224037  0.78309390  0.73051336     0.09500
H1365       H  0.55842277  0.79782890  0.85200745     0.07300
H1366       H  0.53392891  0.76880944  0.84589502     0.08500
H1367       H  0.53366226  0.78874790  0.89024812     0.07600
H1368       H  0.43801806  0.83889986  0.76000795     0.02400
H1369       H  0.45711249  0.87179324  0.75626240     0.02900
H1370       H  0.43491501  0.86510533  0.79793109     0.06400
H1371       H  0.52482039  0.89187780  0.70977647     0.05400
H1372       H  0.53675304  0.86911287  0.74867930    -0.00400
H1373       H  0.50258216  0.88565624  0.75154127     0.01100
H1374       H  0.49726724  0.75570168  0.66471319     0.04800
H1375       H  0.48434038  0.77242602  0.62105708     0.06700
H1376       H  0.46048904  0.76548714  0.66109082     0.07600
C1377       C  0.51369964  0.84904730  0.29787486    -0.22000
C1378       C  0.49602173  0.83068342  0.27665097     0.09900
C1379       C  0.47780779  0.81216299  0.29748670     0.10300
C1380       C  0.47844631  0.81191295  0.33875289    -0.16900
C1381       C  0.49580130  0.83058151  0.35993252    -0.27400
C1382       C  0.51310405  0.84995646  0.33912023     0.18700
C1383       C  0.49702928  0.83099530  0.23281639     0.12600
C1384       C  0.45699275  0.79322592  0.27653533    -0.11700
H1385       H  0.46504135  0.79726267  0.35475201     0.12900
C1386       C  0.53076870  0.87219819  0.35932823    -0.22500
H1387       H  0.52794639  0.86302455  0.28215053     0.08600
C1388       C  0.48960015  0.85516010  0.21049747     0.04900
C1389       C  0.49049954  0.85384516  0.16922429    -0.19800
C1390       C  0.49721691  0.82864391  0.14963597    -0.12100
C1391       C  0.50402375  0.80435592  0.17198371     0.13600
C1392       C  0.50491883  0.80620843  0.21309474    -0.22500
C1393       C  0.47971321  0.88202417  0.22983089    -0.05600
H1394       H  0.48524876  0.87239422  0.15198839     0.15100
C1395       C  0.51004183  0.77605164  0.15354667    -0.15800
H1396       H  0.51121800  0.78783472  0.22999381     0.09500
H1397       H  0.52475651  0.89340233  0.34812259     0.07300
H1398       H  0.55346091  0.86854205  0.35288710     0.08500
H1399       H  0.52791272  0.87248675  0.39164385     0.07600
H1400       H  0.46817925  0.77696352  0.25913667     0.02400
H1401       H  0.44344654  0.80606521  0.25676555     0.02900
H1402       H  0.44297341  0.78192910  0.29755034     0.06400
H1403       H  0.47286912  0.89795459  0.20780208     0.05400
H1404       H  0.49700775  0.89165258  0.24728228    -0.00400
H1405       H  0.46145827  0.87739155  0.24932323     0.01100
H1406       H  0.53188491  0.76942274  0.16101461     0.04800
H1407       H  0.50787733  0.77618526  0.12111185     0.06700
H1408       H  0.49495983  0.76010083  0.16524832     0.07600
loop_ 
_geom_bond_atom_site_label_1 
_geom_bond_atom_site_label_2 
_geom_bond_distance 
_geom_bond_site_symmetry_2 
_ccdc_geom_bond_type 
N1            C6   1.356       .  A
N1            C5   1.354       .  A
N1           H33   1.037       .  S
N2            C9   1.353       .  A
N2           C10   1.354       .  A
N3            C8   1.353       .  A
N3            C7   1.351       .  A
N3           H34   1.039       .  S
N4           C11   1.350       .  A
N4           C12   1.351       .  A
C5           C13   1.389       .  A
C5           C21   1.422       .  A
C6           C22   1.418       .  A
C6           C14   1.385       .  A
C7           C15   1.386       .  A
C7           C24   1.413   1_556  A
C8           C23   1.417       .  A
C8           C16   1.388       .  A
C9           C21   1.420       .  A
C9           C17   1.388       .  A
C10          C24   1.416       .  A
C10          C18   1.385       .  A
C11          C19   1.385       .  A
C11          C22   1.410   1_556  A
C12          C20   1.387       .  A
C12          C23   1.414       .  A
C13          C14   1.376       .  A
C13          H25   1.081       .  S
C14          H26   1.082       .  S
C15          C16   1.378       .  A
C15          H27   1.082       .  S
C16          H28   1.082       .  S
C17          C18   1.372       .  A
C17          H29   1.081       .  S
C18          H30   1.082       .  S
C19          C20   1.373       .  A
C19          H31   1.082       .  S
C20          H32   1.082       .  S
C21        C1390   1.493       .  S
C22        C1294   1.491       .  S
C23        C1349   1.494       .  S
C24        C1317   1.493       .  S
N35          C40   1.352       .  A
N35          C39   1.353       .  A
N35          H67   1.036       .  S
N36          C43   1.353       .  A
N36          C44   1.351       .  A
N37          C42   1.353       .  A
N37          C41   1.353       .  A
N37          H68   1.036       .  S
N38          C45   1.352       .  A
N38          C46   1.353       .  A
C39          C47   1.388       .  A
C39          C55   1.419       .  A
C40          C56   1.415       .  A
C40          C48   1.386       .  A
C41          C49   1.386       .  A
C41          C58   1.417       .  A
C42          C57   1.419       .  A
C42          C50   1.388       .  A
C43          C55   1.417       .  A
C43          C51   1.387       .  A
C44          C58   1.414       .  A
C44          C52   1.386       .  A
C45          C53   1.386       .  A
C45          C56   1.414       .  A
C46          C54   1.387       .  A
C46          C57   1.416       .  A
C47          C48   1.376       .  A
C47          H59   1.082       .  S
C48          H60   1.082       .  S
C49          C50   1.374       .  A
C49          H61   1.082       .  S
C50          H62   1.081       .  S
C51          C52   1.372       .  A
C51          H63   1.082       .  S
C52          H64   1.082       .  S
C53          C54   1.370       .  A
C53          H65   1.082       .  S
C54          H66   1.082       .  S
C55        C1381   1.495       .  S
C56        C1253   1.487       .  S
C57        C1358   1.490       .  S
C58        C1230   1.488       .  S
N69          C74   1.352       .  A
N69          C73   1.351       .  A
N69         H101   1.040       .  S
N70          C77   1.352       .  A
N70          C78   1.351       .  A
N71          C76   1.355       .  A
N71          C75   1.355       .  A
N71         H102   1.038       .  S
N72          C79   1.351       .  A
N72          C80   1.349       .  A
C73          C81   1.386       .  A
C73          C89   1.411       .  A
C74          C90   1.415       .  A
C74          C82   1.387       .  A
C75          C83   1.388       .  A
C75          C92   1.421       .  A
C76          C91   1.417       .  A
C76          C84   1.385       .  A
C77          C89   1.413   1_556  A
C77          C85   1.385       .  A
C78          C92   1.416       .  A
C78          C86   1.388       .  A
C79          C87   1.387       .  A
C79          C90   1.414       .  A
C80          C88   1.385       .  A
C80          C91   1.410   1_554  A
C81          C82   1.375       .  A
C81          H93   1.082       .  S
C82          H94   1.082       .  S
C83          C84   1.376       .  A
C83          H95   1.081       .  S
C84          H96   1.082       .  S
C85          C86   1.373       .  A
C85          H97   1.082       .  S
C86          H98   1.082       .  S
C87          C88   1.373       .  A
C87          H99   1.082       .  S
C88         H100   1.082       .  S
C89        C1093   1.486       .  S
C90        C1189   1.494       .  S
C91        C1125   1.488       .  S
C92        C1166   1.493       .  S
N103        C108   1.353       .  A
N103        C107   1.355       .  A
N103        H135   1.039       .  S
N104        C111   1.353       .  A
N104        C112   1.351       .  A
N105        C110   1.354       .  A
N105        C109   1.353       .  A
N105        H136   1.036       .  S
N106        C113   1.352       .  A
N106        C114   1.352       .  A
C107        C115   1.388       .  A
C107        C123   1.419       .  A
C108        C124   1.413       .  A
C108        C116   1.385       .  A
C109        C117   1.387       .  A
C109        C126   1.417       .  A
C110        C125   1.418       .  A
C110        C118   1.388       .  A
C111        C123   1.418       .  A
C111        C119   1.387       .  A
C112        C126   1.415       .  A
C112        C120   1.386       .  A
C113        C121   1.385       .  A
C113        C124   1.412       .  A
C114        C122   1.388       .  A
C114        C125   1.416       .  A
C115        C116   1.375       .  A
C115        H127   1.082       .  S
C116        H128   1.082       .  S
C117        C118   1.373       .  A
C117        H129   1.082       .  S
C118        H130   1.081       .  S
C119        C120   1.374       .  A
C119        H131   1.082       .  S
C120        H132   1.083       .  S
C121        C122   1.369       .  A
C121        H133   1.082       .  S
C122        H134   1.082       .  S
C123       C1157   1.501       .  S
C124       C1061   1.491       .  S
C125       C1198   1.489       .  S
C126       C1038   1.488       .  S
N137        C142   1.353       .  A
N137        C141   1.352       .  A
N137        H169   1.040       .  S
N138        C145   1.352       .  A
N138        C146   1.352       .  A
N139        C144   1.354       .  A
N139        C143   1.354       .  A
N139        H170   1.040       .  S
N140        C147   1.351       .  A
N140        C148   1.350       .  A
C141        C149   1.386       .  A
C141        C157   1.412       .  A
C142        C158   1.416       .  A
C142        C150   1.388       .  A
C143        C151   1.387       .  A
C143        C160   1.417       .  A
C144        C159   1.415   1_556  A
C144        C152   1.387       .  A
C145        C157   1.413   1_556  A
C145        C153   1.385       .  A
C146        C160   1.416       .  A
C146        C154   1.387       .  A
C147        C155   1.387       .  A
C147        C158   1.415       .  A
C148        C156   1.386       .  A
C148        C159   1.412       .  A
C149        C150   1.377       .  A
C149        H161   1.082       .  S
C150        H162   1.082       .  S
C151        C152   1.376       .  A
C151        H163   1.082       .  S
C152        H164   1.082       .  S
C153        C154   1.376       .  A
C153        H165   1.082       .  S
C154        H166   1.082       .  S
C155        C156   1.376       .  A
C155        H167   1.082       .  S
C156        H168   1.082       .  S
C157        C910   1.487       .  S
C158       C1006   1.495       .  S
C159        C933   1.489       .  S
C160        C974   1.498       .  S
N171        C176   1.353       .  A
N171        C175   1.351       .  A
N171        H203   1.039       .  S
N172        C179   1.351       .  A
N172        C180   1.352       .  A
N173        C178   1.352       .  A
N173        C177   1.354       .  A
N173        H204   1.039       .  S
N174        C181   1.353       .  A
N174        C182   1.351       .  A
C175        C183   1.387       .  A
C175        C191   1.414       .  A
C176        C192   1.415       .  A
C176        C184   1.387       .  A
C177        C185   1.387       .  A
C177        C194   1.417       .  A
C178        C193   1.416       .  A
C178        C186   1.387       .  A
C179        C191   1.413       .  A
C179        C187   1.386       .  A
C180        C194   1.415       .  A
C180        C188   1.386       .  A
C181        C189   1.386       .  A
C181        C192   1.415       .  A
C182        C190   1.386       .  A
C182        C193   1.413       .  A
C183        C184   1.377       .  A
C183        H195   1.082       .  S
C184        H196   1.082       .  S
C185        C186   1.378       .  A
C185        H197   1.082       .  S
C186        H198   1.082       .  S
C187        C188   1.374       .  A
C187        H199   1.082       .  S
C188        H200   1.082       .  S
C189        C190   1.375       .  A
C189        H201   1.082       .  S
C190        H202   1.082       .  S
C191        C869   1.485       .  S
C192        C965   1.495       .  S
C193        C846   1.489       .  S
C194        C997   1.497       .  S
N205        C210   1.351       .  A
N205        C209   1.354       .  A
N205        H237   1.040       .  S
N206        C213   1.351       .  A
N206        C214   1.350       .  A
N207        C212   1.354       .  A
N207        C211   1.354       .  A
N207        H238   1.038       .  S
N208        C215   1.352       .  A
N208        C216   1.352       .  A
C209        C217   1.388       .  A
C209        C225   1.417       .  A
C210        C226   1.412   1_556  A
C210        C218   1.386       .  A
C211        C219   1.386       .  A
C211        C228   1.416   1_554  A
C212        C227   1.418       .  A
C212        C220   1.388       .  A
C213        C225   1.415       .  A
C213        C221   1.387       .  A
C214        C228   1.412       .  A
C214        C222   1.386       .  A
C215        C223   1.385       .  A
C215        C226   1.413       .  A
C216        C224   1.387       .  A
C216        C227   1.416       .  A
C217        C218   1.376       .  A
C217        H229   1.082       .  S
C218        H230   1.082       .  S
C219        C220   1.376       .  A
C219        H231   1.082       .  S
C220        H232   1.082       .  S
C221        C222   1.375       .  A
C221        H233   1.082       .  S
C222        H234   1.082       .  S
C223        C224   1.374       .  A
C223        H235   1.082       .  S
C224        H236   1.082       .  S
C225        C773   1.497       .  S
C226        C741   1.487       .  S
C227        C805   1.491       .  S
C228        C709   1.490       .  S
N239        C244   1.355       .  A
N239        C243   1.353       .  A
N239        H271   1.038       .  S
N240        C247   1.353       .  A
N240        C248   1.353       .  A
N241        C246   1.354       .  A
N241        C245   1.355       .  A
N241        H272   1.036       .  S
N242        C249   1.352       .  A
N242        C250   1.352       .  A
C243        C251   1.385       .  A
C243        C259   1.413       .  A
C244        C260   1.419       .  A
C244        C252   1.388       .  A
C245        C253   1.389       .  A
C245        C262   1.422       .  A
C246        C261   1.417       .  A
C246        C254   1.385       .  A
C247        C259   1.414       .  A
C247        C255   1.385       .  A
C248        C262   1.419       .  A
C248        C256   1.388       .  A
C249        C257   1.387       .  A
C249        C260   1.418       .  A
C250        C258   1.385       .  A
C250        C261   1.413       .  A
C251        C252   1.375       .  A
C251        H263   1.082       .  S
C252        H264   1.082       .  S
C253        C254   1.373       .  A
C253        H265   1.081       .  S
C254        H266   1.082       .  S
C255        C256   1.372       .  A
C255        H267   1.082       .  S
C256        H268   1.082       .  S
C257        C258   1.374       .  A
C257        H269   1.082       .  S
C258        H270   1.082       .  S
C259        C654   1.488       .  S
C260        C814   1.500       .  S
C261        C686   1.490       .  S
C262        C782   1.494       .  S
O273       Ni281   1.920       .  S
O273        C283   1.282       .  A
O274       Ni281   1.920       .  S
O274        C284   1.281       .  A
O275       Ni281   1.917       .  S
O275        C285   1.281       .  A
O276       Ni281   1.922       .  S
O276        C286   1.283       .  A
O277       Ni282   1.917       .  S
O277        C286   1.281   1_554  A
O278       Ni282   1.920       .  S
O278        C285   1.282   1_554  A
O279       Ni282   1.923       .  S
O279        C284   1.282   1_554  A
O280       Ni282   1.922       .  S
O280        C283   1.281   1_554  A
Ni281      Ni282   2.385   1_556  S
C283        C590   1.479   1_556  S
C284       C1326   1.488       .  S
C285        C622   1.479       .  S
C286       C1134   1.495   1_556  S
O287       Ni295   1.922       .  S
O287        C297   1.282       .  A
O288       Ni295   1.924       .  S
O288        C298   1.282       .  A
O289       Ni295   1.927       .  S
O289        C299   1.283       .  A
O290       Ni295   1.927       .  S
O290        C300   1.283       .  A
O291       Ni296   1.913       .  S
O291        C300   1.281       .  A
O292       Ni296   1.914       .  S
O292        C299   1.279       .  A
O293       Ni296   1.921       .  S
O293        C298   1.283       .  A
O294       Ni296   1.921       .  S
O294        C297   1.282       .  A
Ni295      Ni296   2.384       .  S
C297        C558   1.483       .  S
C298       C1070   1.494       .  S
C299        C517   1.479       .  S
C300       C1262   1.495       .  S
O301       Ni309   1.920       .  S
O301        C311   1.282       .  A
O302       Ni309   1.917       .  S
O302        C312   1.283   1_556  A
O303       Ni309   1.917       .  S
O303        C313   1.280   1_556  A
O304       Ni309   1.915       .  S
O304        C314   1.281   1_556  A
O305       Ni310   1.920       .  S
O305        C314   1.282       .  A
O306       Ni310   1.921       .  S
O306        C313   1.282       .  A
O307       Ni310   1.920       .  S
O307        C312   1.281       .  A
O308       Ni310   1.917       .  S
O308        C311   1.281   1_554  A
Ni309      Ni310   2.385   1_556  S
C311        C613   1.481       .  S
C312       C1102   1.495       .  S
C313        C485   1.475       .  S
C314        C942   1.490       .  S
O315       Ni323   1.920       .  S
O315        C325   1.282       .  A
O316       Ni323   1.919       .  S
O316        C326   1.281       .  A
O317       Ni323   1.922       .  S
O317        C327   1.282       .  A
O318       Ni323   1.920       .  S
O318        C328   1.283       .  A
O319       Ni324   1.915       .  S
O319        C328   1.280       .  A
O320       Ni324   1.918       .  S
O320        C327   1.281       .  A
O321       Ni324   1.917       .  S
O321        C326   1.281       .  A
O322       Ni324   1.920       .  S
O322        C325   1.282       .  A
Ni323      Ni324   2.387       .  S
C325        C453   1.486       .  S
C326        C878   1.479       .  S
C327        C549   1.479       .  S
C328       C1029   1.486       .  S
O329       Ni337   1.919       .  S
O329        C339   1.283   1_554  A
O330       Ni337   1.920       .  S
O330        C340   1.282   1_554  A
O331       Ni337   1.917       .  S
O331        C341   1.281   1_554  A
O332       Ni337   1.917       .  S
O332        C342   1.282   1_554  A
O333       Ni338   1.920       .  S
O333        C342   1.281       .  A
O334       Ni338   1.922       .  S
O334        C341   1.282       .  A
O335       Ni338   1.917       .  S
O335        C340   1.281       .  A
O336       Ni338   1.921       .  S
O336        C339   1.281       .  A
Ni337      Ni338   2.384   1_554  S
C339        C494   1.493       .  S
C340        C901   1.486   1_556  S
C341        C750   1.487       .  S
C342        C430   1.483       .  S
O343       Ni351   1.919       .  S
O343        C353   1.281       .  A
O344       Ni351   1.921       .  S
O344        C354   1.283       .  A
O345       Ni351   1.918       .  S
O345        C355   1.281       .  A
O346       Ni351   1.918       .  S
O346        C356   1.281       .  A
O347       Ni352   1.928       .  S
O347        C356   1.283       .  A
O348       Ni352   1.926       .  S
O348        C355   1.282       .  A
O349       Ni352   1.917       .  S
O349        C354   1.280       .  A
O350       Ni352   1.911       .  S
O350        C353   1.279       .  A
Ni351      Ni352   2.386       .  S
C353        C389   1.470       .  S
C354        C677   1.495       .  S
C355        C462   1.480       .  S
C356        C837   1.491       .  S
O357       Ni365   1.920       .  S
O357        C367   1.281       .  A
O358       Ni365   1.918       .  S
O358        C368   1.281       .  A
O359       Ni365   1.926       .  S
O359        C369   1.283       .  A
O360       Ni365   1.922       .  S
O360        C370   1.282       .  A
O361       Ni366   1.913       .  S
O361        C370   1.280   1_554  A
O362       Ni366   1.913       .  S
O362        C369   1.280   1_554  A
O363       Ni366   1.922       .  S
O363        C368   1.283   1_554  A
O364       Ni366   1.920       .  S
O364        C367   1.281   1_554  A
Ni365      Ni366   2.387   1_556  S
C367        C421   1.476       .  S
C368        C718   1.487       .  S
C369        C581   1.486       .  S
C370       C1285   1.481       .  S
O371       Ni379   1.918       .  S
O371        C381   1.281       .  A
O372       Ni379   1.916       .  S
O372        C382   1.282       .  A
O373       Ni379   1.914       .  S
O373        C383   1.280       .  A
O374       Ni379   1.917       .  S
O374        C384   1.280       .  A
O375       Ni380   1.921       .  S
O375        C384   1.283       .  A
O376       Ni380   1.917       .  S
O376        C383   1.281       .  A
O377       Ni380   1.921       .  S
O377        C382   1.281       .  A
O378       Ni380   1.926       .  S
O378        C381   1.283       .  A
Ni379      Ni380   2.382       .  S
C381        C526   1.489       .  S
C382       C1221   1.493       .  S
C383        C398   1.479       .  S
C384        C645   1.496       .  S
C385        C386   1.401       .  A
C385        C390   1.404       .  A
C385        H395   1.084       .  S
C386        C387   1.411       .  A
C386        C391   1.478   1_545  S
C387        C388   1.402       .  A
C387        C392   1.507       .  S
C388        C389   1.402       .  A
C388        H393   1.084       .  S
C389        C390   1.412       .  A
C390        C394   1.507       .  S
C391        C396   1.408       .  A
C391        C400   1.399       .  A
C392        H408   1.110   1_545  S
C392        H409   1.110   1_545  S
C392        H410   1.111       .  S
C394        H405   1.111       .  S
C394        H406   1.109       .  S
C394        H407   1.110       .  S
C396        C397   1.403       .  A
C396        C401   1.506       .  S
C397        C398   1.406       .  A
C397        H402   1.084       .  S
C398        C399   1.419       .  A
C399        C400   1.402       .  A
C399        C403   1.509       .  S
C400        H404   1.085       .  S
C401        H411   1.111       .  S
C401        H412   1.110       .  S
C401        H413   1.110       .  S
C403        H414   1.110       .  S
C403        H415   1.106       .  S
C403        H416   1.111       .  S
C417        C418   1.401       .  A
C417        C422   1.404       .  A
C417        H427   1.084       .  S
C418        C419   1.411   1_556  A
C418        C423   1.481   1_565  S
C419        C420   1.404       .  A
C419        C424   1.506       .  S
C420        C421   1.403   1_554  A
C420        H425   1.083       .  S
C421        C422   1.416       .  A
C422        C426   1.508       .  S
C423        C428   1.409   1_556  A
C423        C432   1.399       .  A
C424        H440   1.110       .  S
C424        H441   1.110       .  S
C424        H442   1.111       .  S
C426        H437   1.111       .  S
C426        H438   1.110       .  S
C426        H439   1.107       .  S
C428        C429   1.403       .  A
C428        C433   1.506       .  S
C429        C430   1.407   1_554  A
C429        H434   1.084       .  S
C430        C431   1.421       .  A
C431        C432   1.404       .  A
C431        C435   1.507       .  S
C432        H436   1.085       .  S
C433        H443   1.111       .  S
C433        H444   1.110   1_545  S
C433        H445   1.110   1_545  S
C435        H446   1.110       .  S
C435        H447   1.101       .  S
C435        H448   1.111       .  S
C449        C450   1.400       .  A
C449        C454   1.404       .  A
C449        H459   1.085       .  S
C450        C451   1.411       .  A
C450        C455   1.485   1_655  S
C451        C452   1.406       .  A
C451        C456   1.506       .  S
C452        C453   1.407       .  A
C452        H457   1.084       .  S
C453        C454   1.420       .  A
C454        C458   1.509       .  S
C455        C460   1.412       .  A
C455        C464   1.400       .  A
C456        H472   1.110   1_655  S
C456        H473   1.110       .  S
C456        H474   1.111       .  S
C458        H469   1.110       .  S
C458        H470   1.111       .  S
C458        H471   1.106       .  S
C460        C461   1.408       .  A
C460        C465   1.506       .  S
C461        C462   1.405       .  A
C461        H466   1.084       .  S
C462        C463   1.417       .  A
C463        C464   1.404       .  A
C463        C467   1.509       .  S
C464        H468   1.085       .  S
C465        H475   1.111       .  S
C465        H476   1.110       .  S
C465        H477   1.110       .  S
C467        H478   1.111       .  S
C467        H479   1.107       .  S
C467        H480   1.110       .  S
C481        C482   1.401   1_554  A
C481        C486   1.403       .  A
C481        H491   1.085       .  S
C482        C483   1.411       .  A
C482        C487   1.481   1_655  S
C483        C484   1.405       .  A
C483        C488   1.506       .  S
C484        C485   1.404   1_556  A
C484        H489   1.084       .  S
C485        C486   1.415       .  A
C486        C490   1.508       .  S
C487        C492   1.408   1_556  A
C487        C496   1.398       .  A
C488        H504   1.110       .  S
C488        H505   1.110       .  S
C488        H506   1.111       .  S
C490        H501   1.110       .  S
C490        H502   1.111       .  S
C490        H503   1.107       .  S
C492        C493   1.404       .  A
C492        C497   1.506       .  S
C493        C494   1.409   1_554  A
C493        H498   1.084       .  S
C494        C495   1.422       .  A
C495        C496   1.405       .  A
C495        C499   1.507       .  S
C496        H500   1.084       .  S
C497        H507   1.111       .  S
C497        H508   1.110       .  S
C497        H509   1.110       .  S
C499        H510   1.111       .  S
C499        H511   1.107       .  S
C499        H512   1.109       .  S
C513        C514   1.402       .  A
C513        C518   1.406       .  A
C513        H523   1.084       .  S
C514        C515   1.411       .  A
C514        C519   1.486   1_655  S
C515        C516   1.405       .  A
C515        C520   1.506       .  S
C516        C517   1.404       .  A
C516        H521   1.084       .  S
C517        C518   1.417       .  A
C518        C522   1.508       .  S
C519        C524   1.411       .  A
C519        C528   1.400       .  A
C520        H536   1.110       .  S
C520        H537   1.110       .  S
C520        H538   1.111       .  S
C522        H533   1.111       .  S
C522        H534   1.110       .  S
C522        H535   1.107       .  S
C524        C525   1.408       .  A
C524        C529   1.506       .  S
C525        C526   1.408       .  A
C525        H530   1.084       .  S
C526        C527   1.419       .  A
C527        C528   1.405       .  A
C527        C531   1.508       .  S
C528        H532   1.084       .  S
C529        H539   1.111       .  S
C529        H540   1.110   1_455  S
C529        H541   1.110   1_455  S
C531        H542   1.111       .  S
C531        H543   1.109       .  S
C531        H544   1.111       .  S
C545        C546   1.401       .  A
C545        C550   1.405       .  A
C545        H555   1.084       .  S
C546        C547   1.412       .  A
C546        C551   1.486   1_545  S
C547        C548   1.406       .  A
C547        C552   1.506       .  S
C548        C549   1.404       .  A
C548        H553   1.084       .  S
C549        C550   1.418       .  A
C550        C554   1.509       .  S
C551        C556   1.411       .  A
C551        C560   1.400       .  A
C552        H568   1.110   1_545  S
C552        H569   1.110   1_545  S
C552        H570   1.111       .  S
C554        H565   1.111       .  S
C554        H566   1.110       .  S
C554        H567   1.106       .  S
C556        C557   1.407       .  A
C556        C561   1.506       .  S
C557        C558   1.406       .  A
C557        H562   1.084       .  S
C558        C559   1.419       .  A
C559        C560   1.405       .  A
C559        C563   1.509       .  S
C560        H564   1.085       .  S
C561        H571   1.111       .  S
C561        H572   1.110       .  S
C561        H573   1.110       .  S
C563        H574   1.110       .  S
C563        H575   1.106       .  S
C563        H576   1.111       .  S
C577        C578   1.400   1_554  A
C577        C582   1.405       .  A
C577        H587   1.084       .  S
C578        C579   1.411       .  A
C578        C583   1.484   1_455  S
C579        C580   1.405       .  A
C579        C584   1.506       .  S
C580        C581   1.406       .  A
C580        H585   1.084       .  S
C581        C582   1.420   1_556  A
C582        C586   1.508       .  S
C583        C588   1.411   1_556  A
C583        C592   1.401       .  A
C584        H600   1.110   1_455  S
C584        H601   1.110   1_455  S
C584        H602   1.111       .  S
C586        H597   1.109       .  S
C586        H598   1.111       .  S
C586        H599   1.110       .  S
C588        C589   1.406       .  A
C588        C593   1.506       .  S
C589        C590   1.404       .  A
C589        H594   1.084       .  S
C590        C591   1.418   1_554  A
C591        C592   1.404       .  A
C591        C595   1.509       .  S
C592        H596   1.084       .  S
C593        H603   1.111       .  S
C593        H604   1.110       .  S
C593        H605   1.110       .  S
C595        H606   1.111       .  S
C595        H607   1.107       .  S
C595        H608   1.110       .  S
C609        C610   1.401       .  A
C609        C614   1.405       .  A
C609        H619   1.085       .  S
C610        C611   1.409   1_556  A
C610        C615   1.482   1_545  S
C611        C612   1.404       .  A
C611        C616   1.507       .  S
C612        C613   1.406   1_554  A
C612        H617   1.084       .  S
C613        C614   1.419       .  A
C614        C618   1.509       .  S
C615        C620   1.410       .  A
C615        C624   1.400   1_556  A
C616        H632   1.110   1_545  S
C616        H633   1.110   1_545  S
C616        H634   1.111       .  S
C618        H629   1.110       .  S
C618        H630   1.111       .  S
C618        H631   1.105       .  S
C620        C621   1.405       .  A
C620        C625   1.506       .  S
C621        C622   1.405       .  A
C621        H626   1.084       .  S
C622        C623   1.419   1_556  A
C623        C624   1.403       .  A
C623        C627   1.509       .  S
C624        H628   1.085       .  S
C625        H635   1.111       .  S
C625        H636   1.110       .  S
C625        H637   1.110       .  S
C627        H638   1.111       .  S
C627        H639   1.106       .  S
C627        H640   1.110       .  S
C641        C642   1.401       .  A
C641        C646   1.406       .  A
C641        H651   1.084       .  S
C642        C643   1.411       .  A
C642        C647   1.488       .  S
C643        C644   1.404       .  A
C643        C648   1.508       .  S
C644        C645   1.409       .  A
C644        H649   1.083       .  S
C645        C646   1.423       .  A
C646        C650   1.508       .  S
C647        C652   1.415       .  A
C647        C656   1.402       .  A
C648        H664   1.109       .  S
C648        H665   1.110       .  S
C648        H666   1.111       .  S
C650        H661   1.111       .  S
C650        H662   1.110       .  S
C650        H663   1.111       .  S
C652        C653   1.406       .  A
C652        C657   1.507       .  S
C653        C654   1.402       .  A
C653        H658   1.084       .  S
C654        C655   1.414       .  A
C655        C656   1.402       .  A
C655        C659   1.508       .  S
C656        H660   1.084       .  S
C657        H667   1.111       .  S
C657        H668   1.109       .  S
C657        H669   1.110       .  S
C659        H670   1.110       .  S
C659        H671   1.108       .  S
C659        H672   1.111       .  S
C673        C674   1.399       .  A
C673        C678   1.406       .  A
C673        H683   1.084       .  S
C674        C675   1.408       .  A
C674        C679   1.483       .  S
C675        C676   1.404       .  A
C675        C680   1.506       .  S
C676        C677   1.409       .  A
C676        H681   1.083       .  S
C677        C678   1.424       .  A
C678        C682   1.508       .  S
C679        C684   1.411       .  A
C679        C688   1.402       .  A
C680        H696   1.110       .  S
C680        H697   1.110       .  S
C680        H698   1.111       .  S
C682        H693   1.111       .  S
C682        H694   1.111       .  S
C682        H695   1.110       .  S
C684        C685   1.403       .  A
C684        C689   1.506       .  S
C685        C686   1.403       .  A
C685        H690   1.084       .  S
C686        C687   1.415       .  A
C687        C688   1.405       .  A
C687        C691   1.507       .  S
C688        H692   1.084       .  S
C689        H699   1.111       .  S
C689        H700   1.110       .  S
C689        H701   1.110       .  S
C691        H702   1.110       .  S
C691        H703   1.108       .  S
C691        H704   1.110       .  S
C705        C706   1.401       .  A
C705        C710   1.403       .  A
C705        H715   1.084       .  S
C706        C707   1.411   1_556  A
C706        C711   1.484       .  S
C707        C708   1.405       .  A
C707        C712   1.506       .  S
C708        C709   1.404   1_554  A
C708        H713   1.084       .  S
C709        C710   1.416       .  A
C710        C714   1.508       .  S
C711        C716   1.410   1_556  A
C711        C720   1.401       .  A
C712        H728   1.110       .  S
C712        H729   1.110       .  S
C712        H730   1.111       .  S
C714        H725   1.110       .  S
C714        H726   1.110       .  S
C714        H727   1.107       .  S
C716        C717   1.404       .  A
C716        C721   1.507       .  S
C717        C718   1.406   1_554  A
C717        H722   1.084       .  S
C718        C719   1.419       .  A
C719        C720   1.406       .  A
C719        C723   1.508       .  S
C720        H724   1.084       .  S
C721        H731   1.111       .  S
C721        H732   1.110       .  S
C721        H733   1.110       .  S
C723        H734   1.109       .  S
C723        H735   1.111       .  S
C723        H736   1.111       .  S
C737        C738   1.402   1_554  A
C737        C742   1.403       .  A
C737        H747   1.084       .  S
C738        C739   1.412       .  A
C738        C743   1.484       .  S
C739        C740   1.404       .  A
C739        C744   1.507       .  S
C740        C741   1.403   1_556  A
C740        H745   1.084       .  S
C741        C742   1.414       .  A
C742        C746   1.507       .  S
C743        C748   1.411       .  A
C743        C752   1.400   1_556  A
C744        H760   1.110       .  S
C744        H761   1.110       .  S
C744        H762   1.111       .  S
C746        H757   1.110       .  S
C746        H758   1.110       .  S
C746        H759   1.108       .  S
C748        C749   1.405       .  A
C748        C753   1.507       .  S
C749        C750   1.407       .  A
C749        H754   1.084       .  S
C750        C751   1.419   1_556  A
C751        C752   1.404       .  A
C751        C755   1.508       .  S
C752        H756   1.084       .  S
C753        H763   1.111       .  S
C753        H764   1.110       .  S
C753        H765   1.110       .  S
C755        H766   1.109       .  S
C755        H767   1.111       .  S
C755        H768   1.111       .  S
C769        C770   1.401       .  A
C769        C774   1.402       .  A
C769        H779   1.085       .  S
C770        C771   1.412       .  A
C770        C775   1.484       .  S
C771        C772   1.405       .  A
C771        C776   1.509       .  S
C772        C773   1.407       .  A
C772        H777   1.084       .  S
C773        C774   1.418       .  A
C774        C778   1.508       .  S
C775        C780   1.413       .  A
C775        C784   1.402       .  A
C776        H792   1.110       .  S
C776        H793   1.106       .  S
C776        H794   1.111       .  S
C778        H789   1.110       .  S
C778        H790   1.111       .  S
C778        H791   1.107       .  S
C780        C781   1.404       .  A
C780        C785   1.509       .  S
C781        C782   1.405       .  A
C781        H786   1.084       .  S
C782        C783   1.417       .  A
C783        C784   1.403       .  A
C783        C787   1.508       .  S
C784        H788   1.084       .  S
C785        H795   1.111       .  S
C785        H796   1.110       .  S
C785        H797   1.106       .  S
C787        H798   1.110       .  S
C787        H799   1.108       .  S
C787        H800   1.110       .  S
C801        C802   1.404       .  A
C801        C806   1.402       .  A
C801        H811   1.084       .  S
C802        C803   1.416       .  A
C802        C807   1.491       .  S
C803        C804   1.406       .  A
C803        C808   1.508       .  S
C804        C805   1.404       .  A
C804        H809   1.084       .  S
C805        C806   1.414       .  A
C806        C810   1.507       .  S
C807        C812   1.415       .  A
C807        C816   1.404       .  A
C808        H824   1.108       .  S
C808        H825   1.110       .  S
C808        H826   1.111       .  S
C810        H821   1.108       .  S
C810        H822   1.110       .  S
C810        H823   1.111       .  S
C812        C813   1.404       .  A
C812        C817   1.508       .  S
C813        C814   1.406       .  A
C813        H818   1.084       .  S
C814        C815   1.418       .  A
C815        C816   1.404       .  A
C815        C819   1.508       .  S
C816        H820   1.084       .  S
C817        H827   1.111       .  S
C817        H828   1.108       .  S
C817        H829   1.111       .  S
C819        H830   1.110       .  S
C819        H831   1.108       .  S
C819        H832   1.111       .  S
C833        C834   1.400       .  A
C833        C838   1.407       .  A
C833        H843   1.084       .  S
C834        C835   1.409       .  A
C834        C839   1.485       .  S
C835        C836   1.406       .  A
C835        C840   1.507       .  S
C836        C837   1.408       .  A
C836        H841   1.084       .  S
C837        C838   1.420       .  A
C838        C842   1.507       .  S
C839        C844   1.411       .  A
C839        C848   1.402       .  A
C840        H856   1.110       .  S
C840        H857   1.110       .  S
C840        H858   1.111       .  S
C842        H853   1.110       .  S
C842        H854   1.111       .  S
C842        H855   1.109       .  S
C844        C845   1.405       .  A
C844        C849   1.506       .  S
C845        C846   1.404       .  A
C845        H850   1.084       .  S
C846        C847   1.415       .  A
C847        C848   1.404       .  A
C847        C851   1.507       .  S
C848        H852   1.084       .  S
C849        H859   1.111       .  S
C849        H860   1.110       .  S
C849        H861   1.110       .  S
C851        H862   1.110       .  S
C851        H863   1.108       .  S
C851        H864   1.110       .  S
C865        C866   1.401       .  A
C865        C870   1.402       .  A
C865        H875   1.084       .  S
C866        C867   1.411       .  A
C866        C871   1.481       .  S
C867        C868   1.403       .  A
C867        C872   1.506       .  S
C868        C869   1.402       .  A
C868        H873   1.084       .  S
C869        C870   1.415       .  A
C870        C874   1.508       .  S
C871        C876   1.411       .  A
C871        C880   1.401       .  A
C872        H888   1.110       .  S
C872        H889   1.110       .  S
C872        H890   1.111       .  S
C874        H885   1.110       .  S
C874        H886   1.110       .  S
C874        H887   1.108       .  S
C876        C877   1.404       .  A
C876        C881   1.507       .  S
C877        C878   1.405       .  A
C877        H882   1.084       .  S
C878        C879   1.416       .  A
C879        C880   1.404       .  A
C879        C883   1.507       .  S
C880        H884   1.084       .  S
C881        H891   1.111       .  S
C881        H892   1.110       .  S
C881        H893   1.110       .  S
C883        H894   1.111       .  S
C883        H895   1.109       .  S
C883        H896   1.111       .  S
C897        C898   1.400   1_556  A
C897        C902   1.405       .  A
C897        H907   1.084       .  S
C898        C899   1.409       .  A
C898        C903   1.482       .  S
C899        C900   1.404       .  A
C899        C904   1.506       .  S
C900        C901   1.406       .  A
C900        H905   1.084       .  S
C901        C902   1.420   1_554  A
C902        C906   1.508       .  S
C903        C908   1.410       .  A
C903        C912   1.402   1_554  A
C904        H920   1.110       .  S
C904        H921   1.110       .  S
C904        H922   1.111       .  S
C906        H917   1.111       .  S
C906        H918   1.111       .  S
C906        H919   1.109       .  S
C908        C909   1.404       .  A
C908        C913   1.506       .  S
C909        C910   1.403       .  A
C909        H914   1.084       .  S
C910        C911   1.414   1_554  A
C911        C912   1.403       .  A
C911        C915   1.507       .  S
C912        H916   1.084       .  S
C913        H923   1.111       .  S
C913        H924   1.110       .  S
C913        H925   1.110       .  S
C915        H926   1.110       .  S
C915        H927   1.108       .  S
C915        H928   1.111       .  S
C929        C930   1.401   1_554  A
C929        C934   1.403       .  A
C929        H939   1.084       .  S
C930        C931   1.411       .  A
C930        C935   1.482   1_556  S
C931        C932   1.405       .  A
C931        C936   1.506       .  S
C932        C933   1.404   1_556  A
C932        H937   1.084       .  S
C933        C934   1.416       .  A
C934        C938   1.507       .  S
C935        C940   1.409   1_554  A
C935        C944   1.399       .  A
C936        H952   1.110       .  S
C936        H953   1.110       .  S
C936        H954   1.111       .  S
C938        H949   1.110       .  S
C938        H950   1.111       .  S
C938        H951   1.108       .  S
C940        C941   1.404       .  A
C940        C945   1.506       .  S
C941        C942   1.409   1_556  A
C941        H946   1.084       .  S
C942        C943   1.420       .  A
C943        C944   1.405       .  A
C943        C947   1.508       .  S
C944        H948   1.084       .  S
C945        H955   1.111       .  S
C945        H956   1.110       .  S
C945        H957   1.110       .  S
C947        H958   1.111       .  S
C947        H959   1.109       .  S
C947        H960   1.111       .  S
C961        C962   1.402       .  A
C961        C966   1.405       .  A
C961        H971   1.084       .  S
C962        C963   1.413       .  A
C962        C967   1.486       .  S
C963        C964   1.406       .  A
C963        C968   1.507       .  S
C964        C965   1.405       .  A
C964        H969   1.084       .  S
C965        C966   1.418       .  A
C966        C970   1.508       .  S
C967        C972   1.411       .  A
C967        C976   1.402       .  A
C968        H984   1.110       .  S
C968        H985   1.108       .  S
C968        H986   1.111       .  S
C970        H981   1.110       .  S
C970        H982   1.110       .  S
C970        H983   1.107       .  S
C972        C973   1.405       .  A
C972        C977   1.507       .  S
C973        C974   1.407       .  A
C973        H978   1.084       .  S
C974        C975   1.418       .  A
C975        C976   1.405       .  A
C975        C979   1.508       .  S
C976        H980   1.084       .  S
C977        H987   1.111       .  S
C977        H988   1.110       .  S
C977        H989   1.108       .  S
C979        H990   1.111       .  S
C979        H991   1.107       .  S
C979        H992   1.110       .  S
C993        C994   1.401       .  A
C993        C998   1.404       .  A
C993       H1003   1.084       .  S
C994        C995   1.410       .  A
C994        C999   1.482       .  S
C995        C996   1.404       .  A
C995       C1000   1.507       .  S
C996        C997   1.406       .  A
C996       H1001   1.084       .  S
C997        C998   1.419       .  A
C998       C1002   1.508       .  S
C999       C1004   1.410       .  A
C999       C1008   1.401       .  A
C1000      H1016   1.110       .  S
C1000      H1017   1.109       .  S
C1000      H1018   1.111       .  S
C1002      H1013   1.110       .  S
C1002      H1014   1.110       .  S
C1002      H1015   1.107       .  S
C1004      C1005   1.404       .  A
C1004      C1009   1.507       .  S
C1005      C1006   1.406       .  A
C1005      H1010   1.084       .  S
C1006      C1007   1.418       .  A
C1007      C1008   1.403       .  A
C1007      C1011   1.508       .  S
C1008      H1012   1.084       .  S
C1009      H1019   1.111       .  S
C1009      H1020   1.110       .  S
C1009      H1021   1.109       .  S
C1011      H1022   1.110       .  S
C1011      H1023   1.107       .  S
C1011      H1024   1.110       .  S
C1025      C1026   1.400       .  A
C1025      C1030   1.405       .  A
C1025      H1035   1.084       .  S
C1026      C1027   1.409       .  A
C1026      C1031   1.479       .  S
C1027      C1028   1.403       .  A
C1027      C1032   1.507       .  S
C1028      C1029   1.407       .  A
C1028      H1033   1.084       .  S
C1029      C1030   1.420       .  A
C1030      C1034   1.508       .  S
C1031      C1036   1.411       .  A
C1031      C1040   1.400       .  A
C1032      H1048   1.110       .  S
C1032      H1049   1.109       .  S
C1032      H1050   1.111       .  S
C1034      H1045   1.111       .  S
C1034      H1046   1.111       .  S
C1034      H1047   1.109       .  S
C1036      C1037   1.404       .  A
C1036      C1041   1.506       .  S
C1037      C1038   1.404       .  A
C1037      H1042   1.084       .  S
C1038      C1039   1.416       .  A
C1039      C1040   1.401       .  A
C1039      C1043   1.508       .  S
C1040      H1044   1.085       .  S
C1041      H1051   1.111       .  S
C1041      H1052   1.110       .  S
C1041      H1053   1.109       .  S
C1043      H1054   1.111       .  S
C1043      H1055   1.108       .  S
C1043      H1056   1.110       .  S
C1057      C1058   1.403       .  A
C1057      C1062   1.405       .  A
C1057      H1067   1.084       .  S
C1058      C1059   1.410       .  A
C1058      C1063   1.484       .  S
C1059      C1060   1.403       .  A
C1059      C1064   1.506       .  S
C1060      C1061   1.403       .  A
C1060      H1065   1.084       .  S
C1061      C1062   1.416       .  A
C1062      C1066   1.507       .  S
C1063      C1068   1.409       .  A
C1063      C1072   1.400       .  A
C1064      H1080   1.110       .  S
C1064      H1081   1.110       .  S
C1064      H1082   1.111       .  S
C1066      H1077   1.111       .  S
C1066      H1078   1.110       .  S
C1066      H1079   1.108       .  S
C1068      C1069   1.405       .  A
C1068      C1073   1.507       .  S
C1069      C1070   1.409       .  A
C1069      H1074   1.084       .  S
C1070      C1071   1.422       .  A
C1071      C1072   1.407       .  A
C1071      C1075   1.507       .  S
C1072      H1076   1.084       .  S
C1073      H1083   1.111       .  S
C1073      H1084   1.110       .  S
C1073      H1085   1.110       .  S
C1075      H1086   1.111       .  S
C1075      H1087   1.111       .  S
C1075      H1088   1.110       .  S
C1089      C1090   1.400       .  A
C1089      C1094   1.401       .  A
C1089      H1099   1.085       .  S
C1090      C1091   1.411       .  A
C1090      C1095   1.481       .  S
C1091      C1092   1.405   1_554  A
C1091      C1096   1.506   1_554  S
C1092      C1093   1.403   1_556  A
C1092      H1097   1.084       .  S
C1093      C1094   1.415       .  A
C1094      C1098   1.508       .  S
C1095      C1100   1.407   1_554  A
C1095      C1104   1.399       .  A
C1096      H1112   1.110   1_556  S
C1096      H1113   1.110       .  S
C1096      H1114   1.111       .  S
C1098      H1109   1.110   1_554  S
C1098      H1110   1.110       .  S
C1098      H1111   1.108       .  S
C1100      C1101   1.401       .  A
C1100      C1105   1.507       .  S
C1101      C1102   1.409   1_556  A
C1101      H1106   1.083       .  S
C1102      C1103   1.424       .  A
C1103      C1104   1.408       .  A
C1103      C1107   1.508       .  S
C1104      H1108   1.084       .  S
C1105      H1115   1.111       .  S
C1105      H1116   1.110       .  S
C1105      H1117   1.110       .  S
C1107      H1118   1.110       .  S
C1107      H1119   1.110       .  S
C1107      H1120   1.111       .  S
C1121      C1122   1.401   1_554  A
C1121      C1126   1.404       .  A
C1121      H1131   1.084       .  S
C1122      C1123   1.411       .  A
C1122      C1127   1.483       .  S
C1123      C1124   1.405       .  A
C1123      C1128   1.506       .  S
C1124      C1125   1.402       .  A
C1124      H1129   1.084       .  S
C1125      C1126   1.416   1_556  A
C1126      C1130   1.508       .  S
C1127      C1132   1.409       .  A
C1127      C1136   1.398   1_556  A
C1128      H1144   1.110   1_556  S
C1128      H1145   1.110       .  S
C1128      H1146   1.111       .  S
C1130      H1141   1.110   1_554  S
C1130      H1142   1.110       .  S
C1130      H1143   1.108       .  S
C1132      C1133   1.405       .  A
C1132      C1137   1.507       .  S
C1133      C1134   1.410   1_556  A
C1133      H1138   1.084       .  S
C1134      C1135   1.423       .  A
C1135      C1136   1.406       .  A
C1135      C1139   1.508       .  S
C1136      H1140   1.084       .  S
C1137      H1147   1.111       .  S
C1137      H1148   1.110       .  S
C1137      H1149   1.110       .  S
C1139      H1150   1.110       .  S
C1139      H1151   1.111       .  S
C1139      H1152   1.111       .  S
C1153      C1154   1.402       .  A
C1153      C1158   1.403       .  A
C1153      H1163   1.084       .  S
C1154      C1155   1.415       .  A
C1154      C1159   1.491       .  S
C1155      C1156   1.406       .  A
C1155      C1160   1.507       .  S
C1156      C1157   1.407       .  A
C1156      H1161   1.084       .  S
C1157      C1158   1.419       .  A
C1158      C1162   1.508       .  S
C1159      C1164   1.416       .  A
C1159      C1168   1.404       .  A
C1160      H1176   1.108       .  S
C1160      H1177   1.110       .  S
C1160      H1178   1.111       .  S
C1162      H1173   1.111       .  S
C1162      H1174   1.110       .  S
C1162      H1175   1.107       .  S
C1164      C1165   1.405       .  A
C1164      C1169   1.508       .  S
C1165      C1166   1.403       .  A
C1165      H1170   1.084       .  S
C1166      C1167   1.416       .  A
C1167      C1168   1.404       .  A
C1167      C1171   1.508       .  S
C1168      H1172   1.084       .  S
C1169      H1179   1.111       .  S
C1169      H1180   1.108       .  S
C1169      H1181   1.111       .  S
C1171      H1182   1.110       .  S
C1171      H1183   1.110       .  S
C1171      H1184   1.108       .  S
C1185      C1186   1.400       .  A
C1185      C1190   1.400       .  A
C1185      H1195   1.085       .  S
C1186      C1187   1.411       .  A
C1186      C1191   1.478       .  S
C1187      C1188   1.403       .  A
C1187      C1192   1.508       .  S
C1188      C1189   1.407       .  A
C1188      H1193   1.084       .  S
C1189      C1190   1.419       .  A
C1190      C1194   1.509       .  S
C1191      C1196   1.412       .  A
C1191      C1200   1.401       .  A
C1192      H1208   1.110       .  S
C1192      H1209   1.106       .  S
C1192      H1210   1.111       .  S
C1194      H1205   1.110       .  S
C1194      H1206   1.111       .  S
C1194      H1207   1.107       .  S
C1196      C1197   1.404       .  A
C1196      C1201   1.509       .  S
C1197      C1198   1.405       .  A
C1197      H1202   1.084       .  S
C1198      C1199   1.416       .  A
C1199      C1200   1.400       .  A
C1199      C1203   1.508       .  S
C1200      H1204   1.085       .  S
C1201      H1211   1.111       .  S
C1201      H1212   1.110       .  S
C1201      H1213   1.106       .  S
C1203      H1214   1.110       .  S
C1203      H1215   1.108       .  S
C1203      H1216   1.110       .  S
C1217      C1218   1.399       .  A
C1217      C1222   1.406       .  A
C1217      H1227   1.084       .  S
C1218      C1219   1.408       .  A
C1218      C1223   1.480       .  S
C1219      C1220   1.403       .  A
C1219      C1224   1.507       .  S
C1220      C1221   1.410       .  A
C1220      H1225   1.084       .  S
C1221      C1222   1.423       .  A
C1222      C1226   1.508       .  S
C1223      C1228   1.411       .  A
C1223      C1232   1.402       .  A
C1224      H1240   1.110       .  S
C1224      H1241   1.110       .  S
C1224      H1242   1.111       .  S
C1226      H1237   1.109       .  S
C1226      H1238   1.111       .  S
C1226      H1239   1.111       .  S
C1228      C1229   1.402       .  A
C1228      C1233   1.506       .  S
C1229      C1230   1.403       .  A
C1229      H1234   1.084       .  S
C1230      C1231   1.415       .  A
C1231      C1232   1.403       .  A
C1231      C1235   1.507       .  S
C1232      H1236   1.084       .  S
C1233      H1243   1.111       .  S
C1233      H1244   1.110       .  S
C1233      H1245   1.110       .  S
C1235      H1246   1.110       .  S
C1235      H1247   1.108       .  S
C1235      H1248   1.110       .  S
C1249      C1250   1.400       .  A
C1249      C1254   1.401       .  A
C1249      H1259   1.084       .  S
C1250      C1251   1.412       .  A
C1250      C1255   1.481       .  S
C1251      C1252   1.405       .  A
C1251      C1256   1.506       .  S
C1252      C1253   1.404       .  A
C1252      H1257   1.084       .  S
C1253      C1254   1.415       .  A
C1254      C1258   1.508       .  S
C1255      C1260   1.406       .  A
C1255      C1264   1.401       .  A
C1256      H1272   1.110       .  S
C1256      H1273   1.110       .  S
C1256      H1274   1.111       .  S
C1258      H1269   1.110       .  S
C1258      H1270   1.110       .  S
C1258      H1271   1.108       .  S
C1260      C1261   1.401       .  A
C1260      C1265   1.507       .  S
C1261      C1262   1.410       .  A
C1261      H1266   1.083       .  S
C1262      C1263   1.422       .  A
C1263      C1264   1.408       .  A
C1263      C1267   1.507       .  S
C1264      H1268   1.084       .  S
C1265      H1275   1.111       .  S
C1265      H1276   1.110       .  S
C1265      H1277   1.110       .  S
C1267      H1278   1.111       .  S
C1267      H1279   1.111       .  S
C1267      H1280   1.109       .  S
C1281      C1282   1.402       .  A
C1281      C1286   1.406       .  A
C1281      H1291   1.084       .  S
C1282      C1283   1.410   1_556  A
C1282      C1287   1.482       .  S
C1283      C1284   1.402       .  A
C1283      C1288   1.507       .  S
C1284      C1285   1.405   1_554  A
C1284      H1289   1.084       .  S
C1285      C1286   1.417       .  A
C1286      C1290   1.507       .  S
C1287      C1292   1.412   1_556  A
C1287      C1296   1.399       .  A
C1288      H1304   1.110       .  S
C1288      H1305   1.110       .  S
C1288      H1306   1.111       .  S
C1290      H1301   1.111       .  S
C1290      H1302   1.111       .  S
C1290      H1303   1.109       .  S
C1292      C1293   1.406       .  A
C1292      C1297   1.505       .  S
C1293      C1294   1.404       .  A
C1293      H1298   1.084       .  S
C1294      C1295   1.417   1_554  A
C1295      C1296   1.401       .  A
C1295      C1299   1.508       .  S
C1296      H1300   1.085       .  S
C1297      H1307   1.111       .  S
C1297      H1308   1.110       .  S
C1297      H1309   1.110       .  S
C1299      H1310   1.110       .  S
C1299      H1311   1.107       .  S
C1299      H1312   1.110       .  S
C1313      C1314   1.401       .  A
C1313      C1318   1.404       .  A
C1313      H1323   1.084       .  S
C1314      C1315   1.412   1_556  A
C1314      C1319   1.486       .  S
C1315      C1316   1.406       .  A
C1315      C1320   1.506       .  S
C1316      C1317   1.404       .  A
C1316      H1321   1.084       .  S
C1317      C1318   1.418   1_554  A
C1318      C1322   1.508       .  S
C1319      C1324   1.411   1_556  A
C1319      C1328   1.400       .  A
C1320      H1336   1.110       .  S
C1320      H1337   1.110       .  S
C1320      H1338   1.111       .  S
C1322      H1333   1.110       .  S
C1322      H1334   1.107       .  S
C1322      H1335   1.110       .  S
C1324      C1325   1.406       .  A
C1324      C1329   1.506       .  S
C1325      C1326   1.407   1_554  A
C1325      H1330   1.084       .  S
C1326      C1327   1.419       .  A
C1327      C1328   1.406       .  A
C1327      C1331   1.507       .  S
C1328      H1332   1.084       .  S
C1329      H1339   1.111       .  S
C1329      H1340   1.110       .  S
C1329      H1341   1.110       .  S
C1331      H1342   1.111       .  S
C1331      H1343   1.109       .  S
C1331      H1344   1.111       .  S
C1345      C1346   1.400       .  A
C1345      C1350   1.402       .  A
C1345      H1355   1.085       .  S
C1346      C1347   1.411       .  A
C1346      C1351   1.480       .  S
C1347      C1348   1.403       .  A
C1347      C1352   1.509       .  S
C1348      C1349   1.407       .  A
C1348      H1353   1.084       .  S
C1349      C1350   1.418       .  A
C1350      C1354   1.509       .  S
C1351      C1356   1.412       .  A
C1351      C1360   1.402       .  A
C1352      H1368   1.110       .  S
C1352      H1369   1.107       .  S
C1352      H1370   1.111       .  S
C1354      H1365   1.110       .  S
C1354      H1366   1.110       .  S
C1354      H1367   1.107       .  S
C1356      C1357   1.403       .  A
C1356      C1361   1.509       .  S
C1357      C1358   1.404       .  A
C1357      H1362   1.084       .  S
C1358      C1359   1.416       .  A
C1359      C1360   1.402       .  A
C1359      C1363   1.508       .  S
C1360      H1364   1.084       .  S
C1361      H1371   1.111       .  S
C1361      H1372   1.110       .  S
C1361      H1373   1.107       .  S
C1363      H1374   1.110       .  S
C1363      H1375   1.108       .  S
C1363      H1376   1.110       .  S
C1377      C1378   1.404       .  A
C1377      C1382   1.404       .  A
C1377      H1387   1.084       .  S
C1378      C1379   1.417       .  A
C1378      C1383   1.492       .  S
C1379      C1380   1.404       .  A
C1379      C1384   1.509       .  S
C1380      C1381   1.403       .  A
C1380      H1385   1.084       .  S
C1381      C1382   1.416       .  A
C1382      C1386   1.508       .  S
C1383      C1388   1.417       .  A
C1383      C1392   1.404       .  A
C1384      H1400   1.108       .  S
C1384      H1401   1.110       .  S
C1384      H1402   1.111       .  S
C1386      H1397   1.111       .  S
C1386      H1398   1.110       .  S
C1386      H1399   1.108       .  S
C1388      C1389   1.406       .  A
C1388      C1393   1.508       .  S
C1389      C1390   1.404       .  A
C1389      H1394   1.084       .  S
C1390      C1391   1.415       .  A
C1391      C1392   1.402       .  A
C1391      C1395   1.508       .  S
C1392      H1396   1.084       .  S
C1393      H1403   1.111       .  S
C1393      H1404   1.108       .  S
C1393      H1405   1.110       .  S
C1395      H1406   1.110       .  S
C1395      H1407   1.108       .  S
C1395      H1408   1.110       .  S
