geometry optimzed in LAMMPS
_audit_creation_date              2020-11-30 
_audit_creation_method            'lammps2cif' 
_symmetry_space_group_name_H-M    'P1' 
_symmetry_Int_Tables_number       1 
_symmetry_cell_setting            triclinic 
loop_ 
_symmetry_equiv_pos_as_xyz 
  x,y,z 
_cell_length_a                    25.87876604 
_cell_length_b                    25.798172323175578 
_cell_length_c                    43.5684582459813 
_cell_angle_alpha                 91.10481804557539 
_cell_angle_beta                  91.01603716057338 
_cell_angle_gamma                 78.65285078157852 
loop_ 
_atom_site_label 
_atom_site_type_symbol 
_atom_site_fract_x 
_atom_site_fract_y 
_atom_site_fract_z 
_atom_site_charge 
O1          O  0.95953755  0.98616273  0.43562664    -0.79700
O2          O  0.01954782  0.04002677  0.06734765    -0.79700
O3          O  0.90264039  0.00943854  0.03563068    -0.79700
O4          O  0.05141553  0.11096894  0.48279174    -0.79600
O5          O  0.95764843  0.96822131  0.07022954    -0.79700
O6          O  0.99651625  0.07180758  0.45598663    -0.79700
O7          O  0.98036151  0.08894049  0.02939049    -0.79700
O8          O  0.90594773  0.01835584  0.47178791    -0.79700
C9          C  0.91415805  0.00910706  0.44368684     1.10000
C10         C  0.99257005  0.08362584  0.05770823     1.09900
C11         C  0.91261526  0.99544335  0.06303950     1.10100
C12         C  0.01879347  0.11200413  0.46068644     1.09900
O13         O  0.05977753  0.99384264  0.42525141    -0.79700
O14         O  0.03518360  0.89071774  0.03793687    -0.79700
O15         O  0.95942091  0.90612663  0.46711895    -0.79700
O16         O  0.08996513  0.04788739  0.03076076    -0.79600
O17         O  0.10163012  0.96280750  0.03687935    -0.79700
O18         O  0.04302017  0.91271542  0.46120291    -0.79700
O19         O  0.09736296  0.01044500  0.46911406    -0.79600
O20         O  0.94983071  0.89843043  0.03032436    -0.79700
Co21       Co  0.02283374  0.99015669  0.46184619     1.51500
Co22       Co  0.02825551  0.96563918  0.05017150     1.51700
Co23       Co  0.93153955  0.96105661  0.00223346     1.51600
Co24       Co  0.03505098  0.04760968  0.49744210     1.51500
O25         O  0.00186552  0.98523688  0.50563775    -1.41600
C26         C  0.10019077  0.00216994  0.43967377     1.10000
C27         C  0.99402320  0.87143183  0.03923137     1.10100
C28         C  0.00580428  0.88761719  0.45735099     1.10000
C29         C  0.11811168  0.00545834  0.04033281     1.10000
N30         N  0.00208117  0.57280265  0.25080847    -0.36100
N31         N  0.99577688  0.49739802  0.29932792    -0.56700
N32         N  0.98714411  0.41811425  0.25340318    -0.36100
N33         N  0.98897238  0.49377310  0.20479620    -0.56700
C34         C  0.99328882  0.60550092  0.27563271     0.27500
C35         C  0.99193847  0.60300858  0.22546070     0.27500
C36         C  0.97701927  0.39286652  0.27884868     0.27500
C37         C  0.97162430  0.39177986  0.22894276     0.27500
C38         C  0.00734548  0.53764708  0.31658366     0.36100
C39         C  0.00266427  0.45501435  0.31776127     0.36100
C40         C  0.00457302  0.52987798  0.18689789     0.36100
C41         C  0.99545999  0.44830993  0.18812156     0.36100
C42         C  0.97795036  0.65725481  0.26600272    -0.21400
C43         C  0.97682933  0.65567389  0.23436143    -0.21400
C44         C  0.95498509  0.34972053  0.27040776    -0.21400
C45         C  0.95120845  0.34929426  0.23890602    -0.21400
C46         C  0.02102343  0.52099232  0.34623573    -0.22500
C47         C  0.01791911  0.46861427  0.34700203    -0.22500
C48         C  0.02123388  0.50711792  0.15877544    -0.22500
C49         C  0.01495536  0.45548872  0.15945528    -0.22500
C50         C  0.00164844  0.59020215  0.30666921    -0.17800
C51         C  0.99886162  0.58420394  0.19464831    -0.17800
C52         C  0.98142546  0.40126953  0.19799531    -0.17800
C53         C  0.99116972  0.40548073  0.30915769    -0.17800
H54         H  0.96869530  0.69254225  0.28030164     0.15100
H55         H  0.96637952  0.68955667  0.21964319     0.15100
H56         H  0.94382524  0.32071091  0.28520498     0.15100
H57         H  0.93682823  0.31989778  0.22488911     0.15100
H58         H  0.03124847  0.54436476  0.36547459     0.13400
H59         H  0.02502314  0.44380497  0.36698539     0.13400
H60         H  0.03539071  0.52606377  0.13955936     0.13400
H61         H  0.02357715  0.42660393  0.14097258     0.13400
H62         H  0.01964257  0.53293454  0.25116313     0.26600
H63         H  0.01022038  0.44677582  0.25253454     0.26600
N64         N  0.58057185  0.02493743  0.25365197    -0.36100
N65         N  0.50476520  0.02036067  0.20433505    -0.56700
N66         N  0.42480515  0.01872613  0.24985912    -0.36100
N67         N  0.50267905  0.01810202  0.29940835    -0.56700
C68         C  0.61252018  0.01372481  0.22922146     0.27500
C69         C  0.61111193  0.01306784  0.27899554     0.27500
C70         C  0.39767478  0.00961370  0.22407719     0.27500
C71         C  0.39636865  0.00951122  0.27420579     0.27500
C72         C  0.54476293  0.03145517  0.18779943     0.36100
C73         C  0.46214522  0.02687145  0.18544107     0.36100
C74         C  0.54158749  0.02829257  0.31826426     0.36100
C75         C  0.45882143  0.02471432  0.31645360     0.36100
C76         C  0.66376678  0.99421450  0.23916501    -0.21400
C77         C  0.66290311  0.99395075  0.27060895    -0.21400
C78         C  0.35082960  0.99539061  0.23224139    -0.21400
C79         C  0.35010586  0.99512343  0.26378450    -0.21400
C80         C  0.52760654  0.04501341  0.15821046    -0.22500
C81         C  0.47540937  0.04137107  0.15657225    -0.22500
C82         C  0.52273669  0.04062502  0.34758030    -0.22500
C83         C  0.47016275  0.03817572  0.34647357    -0.22500
C84         C  0.59750307  0.02453331  0.19834425    -0.17800
C85         C  0.59446759  0.02335800  0.30951691    -0.17800
C86         C  0.40911314  0.01704027  0.30557475    -0.17800
C87         C  0.41231243  0.01701831  0.19345255    -0.17800
H88         H  0.69841245  0.98220474  0.22522501     0.15100
H89         H  0.69672827  0.98178575  0.28562430     0.15100
H90         H  0.31984495  0.98685080  0.21712022     0.15100
H91         H  0.31859173  0.98614374  0.27748246     0.15100
H92         H  0.55064164  0.05502984  0.13952122     0.13400
H93         H  0.45033545  0.04833900  0.13634329     0.13400
H94         H  0.54465836  0.04986547  0.36765828     0.13400
H95         H  0.44334776  0.04556508  0.36555871     0.13400
H96         H  0.54201714  0.04629633  0.25322435     0.26600
H97         H  0.45792312  0.03575805  0.25092578     0.26600
C98         C  0.30736512  0.06107584  0.13257542    -0.01500
C99         C  0.29377275  0.01270197  0.12312086     0.07100
C100        C  0.32244451  0.96531488  0.13511640    -0.07500
C101        C  0.36236509  0.96585157  0.15723006     0.04500
C102        C  0.37295353  0.01448962  0.16835555    -0.14700
C103        C  0.34576625  0.06169448  0.15554161    -0.08000
C104        C  0.24867626  0.01098305  0.10164661     0.05400
C105        C  0.25693041  0.98112737  0.07416651    -0.09200
C106        C  0.21490437  0.97869299  0.05368575     0.00400
C107        C  0.16420712  0.00757390  0.06025067     0.00300
C108        C  0.15586263  0.03710301  0.08770317    -0.12700
C109        C  0.19713257  0.03778120  0.10874366     0.00800
C110        C  0.22445052  0.94713600  0.02590514     0.40100
C111        C  0.18504765  0.06340927  0.13825884     0.36700
C112        C  0.28329225  0.11038670  0.11853005     0.36400
C113        C  0.39209840  0.91617436  0.16815602     0.37200
N114        N  0.23146219  0.92192009  0.00356243    -0.43600
N115        N  0.17563737  0.08339869  0.16205802    -0.44100
N116        N  0.41620113  0.87634316  0.17673945    -0.41400
N117        N  0.26405395  0.14980097  0.10714796    -0.42900
H118        H  0.35495003  0.09905055  0.16337993     0.13300
H119        H  0.31309629  0.92790795  0.12751517     0.09800
H120        H  0.29618174  0.95968260  0.06876676     0.10900
H121        H  0.11645142  0.05800208  0.09329901     0.16700
C122        C  0.32806719  0.96982443  0.36658265    -0.01500
C123        C  0.28429227  0.01191817  0.36814281     0.07100
C124        C  0.28328351  0.05729130  0.35076541    -0.07500
C125        C  0.32468690  0.06031429  0.33109610     0.04500
C126        C  0.36723631  0.01710765  0.32837855    -0.14700
C127        C  0.36912704  0.97253112  0.34659810    -0.08000
C128        C  0.23794118  0.00804532  0.38659045     0.05400
C129        C  0.23535195  0.02656493  0.41698966    -0.09200
C130        C  0.19198097  0.02345701  0.43515322     0.00400
C131        C  0.14960768  0.00203800  0.42261522     0.00300
C132        C  0.15301856  0.98301361  0.39199474    -0.12700
C133        C  0.19690021  0.98537853  0.37414630     0.00800
C134        C  0.19217332  0.04368592  0.46623205     0.40100
C135        C  0.19966840  0.96373037  0.34323415     0.36700
C136        C  0.33102417  0.92338360  0.38499691     0.36400
C137        C  0.32302764  0.10778175  0.31376370     0.37200
N138        N  0.19313719  0.05999396  0.49111360    -0.43600
N139        N  0.20272999  0.94611475  0.31854657    -0.44100
N140        N  0.32240319  0.14563171  0.29981821    -0.41400
N141        N  0.33316973  0.88640514  0.39994319    -0.42900
H142        H  0.40222083  0.93957277  0.34474908     0.13300
H143        H  0.24979295  0.08990626  0.35225294     0.09800
H144        H  0.26742636  0.04352882  0.42653138     0.10900
H145        H  0.12138294  0.96614964  0.38185390     0.16700
C146        C  0.71548705  0.06487851  0.16277095    -0.01500
C147        C  0.72975563  0.02501963  0.14025085     0.07100
C148        C  0.69830047  0.98709823  0.13522830    -0.07500
C149        C  0.65368941  0.98753632  0.15299818     0.04500
C150        C  0.64015894  0.02653789  0.17619561    -0.14700
C151        C  0.67089876  0.06539565  0.18053836    -0.08000
C152        C  0.77798696  0.02143688  0.12202281     0.05400
C153        C  0.82392193  0.98633942  0.13108664    -0.09200
C154        C  0.86943995  0.97891111  0.11325930     0.00400
C155        C  0.86913680  0.00704867  0.08559253     0.00300
C156        C  0.82336859  0.04393526  0.07749129    -0.12700
C157        C  0.77805306  0.05103587  0.09530157     0.00800
C158        C  0.91459894  0.94053430  0.12341925     0.39900
C159        C  0.73142655  0.08741573  0.08510992     0.36700
C160        C  0.74669652  0.10480050  0.16840728     0.36400
C161        C  0.62319654  0.94690581  0.14764318     0.37200
N162        N  0.95065941  0.90974473  0.13170980    -0.43600
N163        N  0.69405955  0.11647399  0.07685769    -0.44100
N164        N  0.59806480  0.91493537  0.14333093    -0.41400
N165        N  0.77171526  0.13682821  0.17284204    -0.42900
H166        H  0.66074692  0.09528367  0.19844829     0.13300
H167        H  0.70916846  0.95665196  0.11770623     0.09800
H168        H  0.82374689  0.96378708  0.15183523     0.10900
H169        H  0.82225130  0.06630990  0.05658900     0.16700
C170        C  0.70770921  0.07251025  0.34741965    -0.01500
C171        C  0.72964703  0.02958199  0.36615389     0.07100
C172        C  0.70297881  0.98756372  0.36920875    -0.07500
C173        C  0.65627802  0.98663840  0.35272725     0.04500
C174        C  0.63583461  0.02827278  0.33279896    -0.14700
C175        C  0.66109223  0.07151959  0.33092166    -0.08000
C176        C  0.77990254  0.02791306  0.38321310     0.05400
C177        C  0.78208660  0.06553774  0.40657927    -0.09200
C178        C  0.82677570  0.06200190  0.42550081     0.00400
C179        C  0.87015334  0.01992709  0.42122874     0.00300
C180        C  0.86926306  0.98430636  0.39651371    -0.12700
C181        C  0.82451066  0.98787017  0.37758958     0.00800
C182        C  0.82709564  0.10202587  0.44908276     0.40100
C183        C  0.82492401  0.94958450  0.35290186     0.36700
C184        C  0.73369734  0.11658534  0.34357850     0.36400
C185        C  0.63118613  0.94174989  0.35560751     0.37200
N186        N  0.82747731  0.13414587  0.46794852    -0.43600
N187        N  0.82530874  0.91885888  0.33315271    -0.44100
N188        N  0.61077201  0.90598636  0.35803245    -0.41400
N189        N  0.75453964  0.15191340  0.34056921    -0.42900
H190        H  0.64563869  0.10331146  0.31532872     0.13300
H191        H  0.71924516  0.95501935  0.38412329     0.09800
H192        H  0.74812355  0.09684860  0.41061883     0.10900
H193        H  0.90257615  0.95212057  0.39283410     0.16700
C194        C  0.02345774  0.27171485  0.15532263    -0.01500
C195        C  0.97826714  0.26859782  0.13719445     0.07100
C196        C  0.93469245  0.31083656  0.13822411    -0.07500
C197        C  0.93575296  0.35555092  0.15682375     0.04500
C198        C  0.98036682  0.35765697  0.17544565    -0.14700
C199        C  0.02388340  0.31576214  0.17443661    -0.08000
C200        C  0.97622472  0.22181272  0.11694567     0.05400
C201        C  0.98524968  0.17134279  0.12980246    -0.09200
C202        C  0.98877619  0.12582076  0.11130374     0.00400
C203        C  0.98184412  0.13032721  0.07899614     0.00300
C204        C  0.96995226  0.18123329  0.06643523    -0.12700
C205        C  0.96749951  0.22660284  0.08498200     0.00800
C206        C  0.00090856  0.07533976  0.12633696     0.40100
C207        C  0.95870809  0.27746877  0.07043275     0.36700
C208        C  0.07041293  0.23091666  0.15421789     0.36400
C209        C  0.89074050  0.39863262  0.15656154     0.37200
N210        N  0.01110983  0.03507623  0.13854270    -0.43600
N211        N  0.95149168  0.31835714  0.05891096    -0.44100
N212        N  0.85477535  0.43330441  0.15608170    -0.41400
N213        N  0.10814206  0.19833421  0.15335337    -0.42900
H214        H  0.05824889  0.31754523  0.18874827     0.13300
H215        H  0.89976797  0.30881573  0.12448942     0.09800
H216        H  0.99100120  0.16744638  0.15444314     0.10900
H217        H  0.96498013  0.18576177  0.04180240     0.16700
C218        C  0.01874397  0.24843281  0.43043327    -0.01500
C219        C  0.99593454  0.24593153  0.40097820     0.07100
C220        C  0.97780858  0.20035750  0.39172963    -0.07500
C221        C  0.98322101  0.15679750  0.41093922     0.04500
C222        C  0.00661653  0.15876978  0.44053991    -0.14700
C223        C  0.02329039  0.20537152  0.45001571    -0.08000
C224        C  0.99381242  0.28868992  0.37852773     0.05400
C225        C  0.04129476  0.29900746  0.36745208    -0.09200
C226        C  0.04117266  0.33658871  0.34474887     0.00400
C227        C  0.99284901  0.36523710  0.33324900     0.00300
C228        C  0.94538608  0.35551432  0.34463154    -0.12700
C229        C  0.94549664  0.31678278  0.36665702     0.00800
C230        C  0.09097171  0.34463859  0.33328692     0.40100
C231        C  0.89566365  0.30596533  0.37632331     0.36700
C232        C  0.03888864  0.29422089  0.44080486     0.36400
C233        C  0.96768932  0.10993347  0.39832835     0.37200
N234        N  0.13091687  0.35106690  0.32414802    -0.43600
N235        N  0.85569604  0.29689451  0.38374307    -0.44100
N236        N  0.95543287  0.07292038  0.38732279    -0.41400
N237        N  0.05552175  0.33064970  0.44908156    -0.42900
H238        H  0.04139178  0.20776779  0.47250581     0.13300
H239        H  0.96122075  0.19806508  0.36880306     0.09800
H240        H  0.07850670  0.27670036  0.37606739     0.10900
H241        H  0.90823668  0.37748282  0.33573632     0.16700
C242        C  0.03591269  0.69404241  0.14743031    -0.01500
C243        C  0.00039006  0.69715118  0.12219572     0.07100
C244        C  0.96476522  0.66251233  0.12074772    -0.07500
C245        C  0.96291794  0.62653389  0.14420782     0.04500
C246        C  0.99881124  0.62295579  0.16934412    -0.14700
C247        C  0.03533024  0.65675562  0.17041305    -0.08000
C248        C  0.99743300  0.73839202  0.09821057     0.05400
C249        C  0.04237938  0.74177304  0.08125015    -0.09200
C250        C  0.04187585  0.78311015  0.06060592     0.00400
C251        C  0.99529373  0.82155942  0.05615011     0.00300
C252        C  0.94961925  0.81601612  0.07173482    -0.12700
C253        C  0.95049958  0.77567824  0.09285535     0.00800
C254        C  0.08977397  0.78542422  0.04463482     0.40100
C255        C  0.90362697  0.77595778  0.11041184     0.36700
C256        C  0.07173180  0.73023029  0.15098027     0.36400
C257        C  0.92283227  0.59470500  0.14229449     0.37200
N258        N  0.12814233  0.78749769  0.03186968    -0.43600
N259        N  0.86613361  0.77630897  0.12455986    -0.44100
N260        N  0.89100437  0.56887476  0.14071156    -0.41400
N261        N  0.10031136  0.75937164  0.15380073    -0.42900
H262        H  0.06296250  0.65454192  0.18957541     0.13300
H263        H  0.93730088  0.66452913  0.10150897     0.09800
H264        H  0.07837423  0.71275987  0.08474487     0.10900
H265        H  0.91366015  0.84539683  0.06899970     0.16700
C266        C  0.05644080  0.68891526  0.35609287    -0.01500
C267        C  0.01451299  0.70738436  0.37630245     0.07100
C268        C  0.96819236  0.68694517  0.37361166    -0.07500
C269        C  0.96311430  0.64892759  0.35102185     0.04500
C270        C  0.00457194  0.63158139  0.33038675    -0.14700
C271        C  0.05105416  0.65146346  0.33326307    -0.08000
C272        C  0.01628407  0.75162689  0.39825963     0.05400
C273        C  0.02140171  0.80030878  0.38631751    -0.09200
C274        C  0.01996581  0.84451276  0.40542328     0.00400
C275        C  0.01363020  0.84033416  0.43735191     0.00300
C276        C  0.00855396  0.79165428  0.44947301    -0.12700
C277        C  0.00995690  0.74725185  0.43017392     0.00800
C278        C  0.02084052  0.89424809  0.39102448     0.40100
C279        C  0.00469689  0.69782363  0.44351775     0.36700
C280        C  0.10555624  0.70735637  0.35862974     0.36400
C281        C  0.91512727  0.62833686  0.34933960     0.37200
N282        N  0.02081338  0.93328872  0.37838492    -0.43600
N283        N  0.00034324  0.65817829  0.45415602    -0.44100
N284        N  0.87678954  0.61160466  0.34813373    -0.41400
N285        N  0.14488021  0.72219532  0.36071349    -0.42900
H286        H  0.08333232  0.63723149  0.31779260     0.13300
H287        H  0.93560909  0.70145729  0.38882360     0.09800
H288        H  0.02476028  0.80418148  0.36170724     0.10900
H289        H  0.00271798  0.78859224  0.47391977     0.16700
O290        O  0.95741566  0.98743225  0.93752730    -0.79700
O291        O  0.02000340  0.04058007  0.56495804    -0.79700
O292        O  0.90318701  0.00864406  0.53365059    -0.79700
O293        O  0.04583900  0.11485248  0.98573919    -0.79600
O294        O  0.95797493  0.96821961  0.56857519    -0.79700
O295        O  0.99456354  0.07297431  0.95766297    -0.79700
O296        O  0.98342739  0.08851771  0.52588322    -0.79700
O297        O  0.90351232  0.01898907  0.97373983    -0.79700
C298        C  0.91187691  0.00999115  0.94561773     1.10000
C299        C  0.99365077  0.08399322  0.55442079     1.09900
C300        C  0.91263115  0.99434468  0.56106909     1.10100
C301        C  0.01446866  0.11459775  0.96310148     1.09900
O302        O  0.05836210  0.99445815  0.92713051    -0.79700
O303        O  0.03535002  0.88917495  0.53760439    -0.79700
O304        O  0.95706268  0.90667727  0.96878788    -0.79700
O305        O  0.09269771  0.04523578  0.52894362    -0.79600
O306        O  0.10255111  0.96055147  0.53555240    -0.79700
O307        O  0.04057129  0.91308758  0.96256300    -0.79700
O308        O  0.09420440  0.01482211  0.97097565    -0.79600
O309        O  0.95016644  0.89783209  0.52847269    -0.79700
Co310      Co  0.02103547  0.99101264  0.96356996     1.51500
Co311      Co  0.02885192  0.96498723  0.54875010     1.51700
Co312      Co  0.93299545  0.96036098  0.50032328     1.51600
Co313      Co  0.03155810  0.05019208  0.99982485     1.51500
O314        O  0.00025560  0.98654377  0.00732436    -1.41600
C315        C  0.09815540  0.00392968  0.94178890     1.10000
C316        C  0.99363280  0.87052109  0.53818189     1.10100
C317        C  0.00320332  0.88801333  0.95867696     1.10000
C318        C  0.12000544  0.00261272  0.53884242     1.10000
N319        N  0.00002662  0.57153804  0.74947548    -0.36100
N320        N  0.99758573  0.49700487  0.79904735    -0.56700
N321        N  0.98092190  0.41758299  0.75418873    -0.36100
N322        N  0.97787631  0.49292693  0.70456224    -0.56700
C323        C  0.99538287  0.60445124  0.77437700     0.27500
C324        C  0.98714494  0.60168118  0.72423841     0.27500
C325        C  0.97325868  0.39294758  0.78039334     0.27500
C326        C  0.96348782  0.39054427  0.73056184     0.27500
C327        C  0.01290776  0.53656265  0.81533568     0.36100
C328        C  0.00438467  0.45485711  0.81772045     0.36100
C329        C  0.99192679  0.52870494  0.68564920     0.36100
C330        C  0.98200956  0.44725386  0.68810126     0.36100
C331        C  0.97991292  0.65622223  0.76480556    -0.21400
C332        C  0.97454090  0.65447687  0.73326012    -0.21400
C333        C  0.95061653  0.34963655  0.77332865    -0.21400
C334        C  0.94438716  0.34816207  0.74189389    -0.21400
C335        C  0.02928258  0.51954589  0.84457722    -0.22500
C336        C  0.02402323  0.46770546  0.84605196    -0.22500
C337        C  0.00494650  0.50560049  0.65711444    -0.22500
C338        C  0.99841349  0.45414360  0.65862247    -0.22500
C339        C  0.00698438  0.58923230  0.80533369    -0.17800
C340        C  0.98961252  0.58284617  0.69324110    -0.17800
C341        C  0.96963283  0.39982460  0.69900034    -0.17800
C342        C  0.98966920  0.40616220  0.81022845    -0.17800
H343        H  0.97333796  0.69166572  0.77906135     0.15100
H344        H  0.96290205  0.68834999  0.71864128     0.15100
H345        H  0.94062885  0.32136545  0.78911933     0.15100
H346        H  0.92883351  0.31844581  0.72880035     0.15100
H347        H  0.04262404  0.54240687  0.86312115     0.13400
H348        H  0.03266352  0.44269089  0.86589412     0.13400
H349        H  0.01754977  0.52399988  0.63720563     0.13400
H350        H  0.00518868  0.42506597  0.64014798     0.13400
H351        H  0.01639750  0.53131995  0.74939845     0.26600
H352        H  0.00316421  0.44676538  0.75213096     0.26600
N353        N  0.58120297  0.01784998  0.75304436    -0.36100
N354        N  0.50563493  0.01163448  0.70428243    -0.56700
N355        N  0.42528062  0.01124598  0.75034023    -0.36100
N356        N  0.50247741  0.01283301  0.79938137    -0.56700
C357        C  0.61341823  0.00722078  0.72865532     0.27500
C358        C  0.61168978  0.00720477  0.77851156     0.27500
C359        C  0.39941102  0.99906098  0.72471319     0.27500
C360        C  0.39752902  0.00117056  0.77486866     0.27500
C361        C  0.54559188  0.02146953  0.68716449     0.36100
C362        C  0.46296115  0.01665007  0.68549029     0.36100
C363        C  0.54155930  0.02410138  0.81776103     0.36100
C364        C  0.45846404  0.02093700  0.81647924     0.36100
C365        C  0.66486775  0.98943704  0.73872444    -0.21400
C366        C  0.66377911  0.98932740  0.77020602    -0.21400
C367        C  0.35428816  0.98168459  0.73314429    -0.21400
C368        C  0.35333616  0.98262704  0.76469119    -0.21400
C369        C  0.52850770  0.03225549  0.65726298    -0.22500
C370        C  0.47620680  0.02885579  0.65612439    -0.22500
C371        C  0.52255616  0.03884167  0.84681189    -0.22500
C372        C  0.46980997  0.03680387  0.84601444    -0.22500
C373        C  0.59820346  0.01643101  0.69765793    -0.17800
C374        C  0.59471081  0.01810163  0.80900480    -0.17800
C375        C  0.40890441  0.01165101  0.80611260    -0.17800
C376        C  0.41329863  0.00677871  0.69397203    -0.17800
H377        H  0.69971395  0.97837765  0.72484411     0.15100
H378        H  0.69769909  0.97835626  0.78530002     0.15100
H379        H  0.32451818  0.97018317  0.71820839     0.15100
H380        H  0.32293236  0.97178179  0.77854408     0.15100
H381        H  0.55160415  0.04048326  0.63813174     0.13400
H382        H  0.45114793  0.03403831  0.63583037     0.13400
H383        H  0.54450282  0.04945069  0.86654582     0.13400
H384        H  0.44296227  0.04578877  0.86501415     0.13400
H385        H  0.54221957  0.03799733  0.75252249     0.26600
H386        H  0.45643798  0.03121630  0.75098204     0.26600
C387        C  0.30847994  0.05321511  0.63348428    -0.01500
C388        C  0.29362162  0.00549821  0.62392471     0.07100
C389        C  0.32116252  0.95756877  0.63592251    -0.07500
C390        C  0.36128372  0.95699736  0.65805618     0.04500
C391        C  0.37313520  0.00507653  0.66923065    -0.14700
C392        C  0.34694055  0.05276196  0.65650897    -0.08000
C393        C  0.24902825  0.00497850  0.60187814     0.05400
C394        C  0.25773055  0.97510205  0.57444120    -0.09200
C395        C  0.21643893  0.97398502  0.55323010     0.00400
C396        C  0.16584921  0.00392940  0.55915111     0.00300
C397        C  0.15711451  0.03360488  0.58651223    -0.12700
C398        C  0.19770280  0.03339199  0.60812550     0.00800
C399        C  0.22708576  0.94326062  0.52521772     0.40100
C400        C  0.18497823  0.06038449  0.63718750     0.36700
C401        C  0.28615221  0.10284888  0.61924248     0.36400
C402        C  0.38982941  0.90683374  0.66903094     0.37200
N403        N  0.23562805  0.91895477  0.50263768    -0.43600
N404        N  0.17476726  0.08182193  0.66051611    -0.44100
N405        N  0.41292337  0.86670185  0.67781440    -0.41400
N406        N  0.26839845  0.14252071  0.60767678    -0.42900
H407        H  0.35720689  0.08965788  0.66433465     0.13300
H408        H  0.31092912  0.92061056  0.62820657     0.09800
H409        H  0.29687851  0.95282164  0.56955526     0.10900
H410        H  0.11783165  0.05551173  0.59154690     0.16700
C411        C  0.33169548  0.96683217  0.87060299    -0.01500
C412        C  0.28455449  0.00506577  0.86994495     0.07100
C413        C  0.27939194  0.04693151  0.84933338    -0.07500
C414        C  0.31990828  0.05043188  0.82900118     0.04500
C415        C  0.36669692  0.01153099  0.82910994    -0.14700
C416        C  0.37233728  0.97034079  0.85029540    -0.08000
C417        C  0.23912268  0.00114680  0.88956820     0.05400
C418        C  0.23184689  0.03003121  0.91726812    -0.09200
C419        C  0.18748192  0.02990500  0.93536924     0.00400
C420        C  0.14867702  0.00127028  0.92537060     0.00300
C421        C  0.15687455  0.97158375  0.89780609    -0.12700
C422        C  0.20177649  0.97085883  0.88017132     0.00800
C423        C  0.18223205  0.06090527  0.96348464     0.40100
C424        C  0.20868641  0.93894548  0.85239702     0.36700
C425        C  0.33877547  0.92333411  0.89159722     0.36400
C426        C  0.31242974  0.09382276  0.80789370     0.37200
N427        N  0.17828228  0.08555047  0.98610035    -0.43600
N428        N  0.21450361  0.91305162  0.83026693    -0.44100
N429        N  0.30649531  0.12839898  0.79083648    -0.41400
N430        N  0.34448025  0.88844002  0.90842651    -0.42900
H431        H  0.40812776  0.94030203  0.85048469     0.13300
H432        H  0.24319193  0.07642406  0.84878272     0.09800
H433        H  0.26068732  0.05322038  0.92457991     0.10900
H434        H  0.12804935  0.94882586  0.88989459     0.16700
C435        C  0.70803785  0.06299621  0.65647951    -0.01500
C436        C  0.72895105  0.01823425  0.63825825     0.07100
C437        C  0.70435209  0.97433628  0.63798478    -0.07500
C438        C  0.66007496  0.97416175  0.65599947     0.04500
C439        C  0.64051584  0.01799744  0.67516575    -0.14700
C440        C  0.66443139  0.06234090  0.67499624    -0.08000
C441        C  0.77699686  0.01577160  0.61971174     0.05400
C442        C  0.82396391  0.98233659  0.62892974    -0.09200
C443        C  0.86951097  0.97623462  0.61114618     0.00400
C444        C  0.86840299  0.00407674  0.58328624     0.00300
C445        C  0.82139878  0.03876419  0.57476164    -0.12700
C446        C  0.77602981  0.04450108  0.59251554     0.00800
C447        C  0.91568579  0.93958844  0.62170099     0.39900
C448        C  0.72826919  0.07829972  0.58162537     0.36700
C449        C  0.73128201  0.10950405  0.65693830     0.36400
C450        C  0.63570512  0.92840402  0.65497230     0.37200
N451        N  0.95251197  0.91019720  0.63037452    -0.43600
N452        N  0.69001824  0.10533930  0.57281441    -0.44100
N453        N  0.61550621  0.89216350  0.65414446    -0.41400
N454        N  0.74967960  0.14692695  0.65708403    -0.42900
H455        H  0.64944540  0.09610342  0.68974565     0.13300
H456        H  0.71996369  0.94008838  0.62374026     0.09800
H457        H  0.82470565  0.96017702  0.64990046     0.10900
H458        H  0.81941490  0.06055010  0.55359362     0.16700
C459        C  0.70594545  0.06948953  0.84825501    -0.01500
C460        C  0.72767616  0.02716758  0.86751003     0.07100
C461        C  0.70168583  0.98448857  0.87008748    -0.07500
C462        C  0.65602446  0.98241380  0.85275171     0.04500
C463        C  0.63590617  0.02348832  0.83239272    -0.14700
C464        C  0.66048588  0.06723665  0.83083343    -0.08000
C465        C  0.77757962  0.02623297  0.88503244     0.05400
C466        C  0.77957928  0.06480533  0.90794532    -0.09200
C467        C  0.82433003  0.06220681  0.92684652     0.00400
C468        C  0.86780338  0.02004921  0.92312208     0.00300
C469        C  0.86703452  0.98345356  0.89893102    -0.12700
C470        C  0.82244443  0.98617916  0.87996074     0.00800
C471        C  0.82499273  0.10350297  0.94961066     0.40100
C472        C  0.82354343  0.94717002  0.85562464     0.36700
C473        C  0.73088260  0.11439536  0.84489325     0.36400
C474        C  0.63149156  0.93707558  0.85531763     0.37200
N475        N  0.82588340  0.13668104  0.96775782    -0.43600
N476        N  0.82464360  0.91584594  0.83614638    -0.44100
N477        N  0.61141051  0.90101406  0.85741958    -0.41400
N478        N  0.75070582  0.15051750  0.84225102    -0.42900
H479        H  0.64523849  0.09866647  0.81497091     0.13300
H480        H  0.71770745  0.95230328  0.88529718     0.09800
H481        H  0.74559604  0.09627639  0.91154711     0.10900
H482        H  0.90045829  0.95122602  0.89564064     0.16700
C483        C  0.01008929  0.26808139  0.65756135    -0.01500
C484        C  0.96973021  0.26907571  0.63513295     0.07100
C485        C  0.92891917  0.31399487  0.63365373    -0.07500
C486        C  0.92798067  0.35710941  0.65405117     0.04500
C487        C  0.96802900  0.35537352  0.67668795    -0.14700
C488        C  0.00864385  0.31065364  0.67812095    -0.08000
C489        C  0.96956134  0.22303158  0.61370582     0.05400
C490        C  0.97115862  0.17287366  0.62609697    -0.09200
C491        C  0.97730459  0.12737109  0.60734167     0.00400
C492        C  0.98052986  0.13143749  0.57510511     0.00300
C493        C  0.97577221  0.18213956  0.56256627    -0.12700
C494        C  0.97081427  0.22755751  0.58147454     0.00800
C495        C  0.98103594  0.07709376  0.62206048     0.40100
C496        C  0.97017105  0.27780955  0.56728412     0.36700
C497        C  0.05460689  0.22460895  0.65932557     0.36400
C498        C  0.88549729  0.40244883  0.65151041     0.37200
N499        N  0.98445303  0.03687147  0.63401271    -0.43600
N500        N  0.96966262  0.31800292  0.55581286    -0.44100
N501        N  0.85155114  0.43887775  0.64934305    -0.41400
N502        N  0.09040858  0.18988716  0.66076092    -0.42900
H503        H  0.03987211  0.30940694  0.69519830     0.13300
H504        H  0.89756420  0.31521793  0.61668253     0.09800
H505        H  0.96918811  0.16906827  0.65078098     0.10900
H506        H  0.97853704  0.18621730  0.53794826     0.16700
C507        C  0.00760530  0.25322699  0.93357434    -0.01500
C508        C  0.99024502  0.24840332  0.90304916     0.07100
C509        C  0.97633978  0.20113183  0.89301374    -0.07500
C510        C  0.98140650  0.15785220  0.91249074     0.04500
C511        C  0.00111656  0.16146299  0.94291823    -0.14700
C512        C  0.01286918  0.21000795  0.95322638    -0.08000
C513        C  0.99009536  0.29056020  0.88040180     0.05400
C514        C  0.03256457  0.28560716  0.86030946    -0.09200
C515        C  0.03322155  0.32307773  0.83758318     0.00400
C516        C  0.99105276  0.36673230  0.83494431     0.00300
C517        C  0.94871283  0.37197293  0.85526197    -0.12700
C518        C  0.94774888  0.33394230  0.87774185     0.00800
C519        C  0.07711759  0.31552791  0.81689962     0.40100
C520        C  0.90228386  0.33889109  0.89708859     0.36700
C521        C  0.02217610  0.30149372  0.94472477     0.36400
C522        C  0.96905396  0.10970895  0.89958165     0.37200
N523        N  0.11225675  0.30918254  0.80026838    -0.43600
N524        N  0.86580176  0.34232664  0.91253167    -0.44100
N525        N  0.95916686  0.07154452  0.88863965    -0.41400
N526        N  0.03382232  0.34030239  0.95349517    -0.42900
H527        H  0.02763252  0.21387075  0.97643837     0.13300
H528        H  0.96300424  0.19754987  0.86945373     0.09800
H529        H  0.06494097  0.25193913  0.86216674     0.10900
H530        H  0.91594146  0.40515087  0.85306104     0.16700
C531        C  0.03032608  0.69010221  0.64505935    -0.01500
C532        C  0.99317133  0.69600943  0.62059235     0.07100
C533        C  0.95480800  0.66423854  0.61998669    -0.07500
C534        C  0.95242476  0.62802054  0.64338559     0.04500
C535        C  0.99016069  0.62147098  0.66769965    -0.14700
C536        C  0.02908064  0.65266173  0.66792152    -0.08000
C537        C  0.99148489  0.73764878  0.59680749     0.05400
C538        C  0.03522944  0.73724255  0.57791098    -0.09200
C539        C  0.03628228  0.77861426  0.55738292     0.00400
C540        C  0.99276091  0.82122311  0.55531394     0.00300
C541        C  0.94809125  0.81982127  0.57293588    -0.12700
C542        C  0.94731850  0.77923269  0.59368854     0.00800
C543        C  0.08194177  0.77611763  0.53843532     0.40100
C544        C  0.90188434  0.78334012  0.61299490     0.36700
C545        C  0.06826212  0.72414315  0.64815982     0.36400
C546        C  0.90969082  0.59945780  0.64242947     0.37200
N547        N  0.11836207  0.77407500  0.52308644    -0.43600
N548        N  0.86537943  0.78706425  0.62843977    -0.44100
N549        N  0.87552587  0.57646032  0.64158838    -0.41400
N550        N  0.09832725  0.75179967  0.65071000    -0.42900
H551        H  0.05806791  0.64846719  0.68644825     0.13300
H552        H  0.92570196  0.66874917  0.60151202     0.09800
H553        H  0.06902064  0.70500946  0.57963434     0.10900
H554        H  0.91443083  0.85233143  0.57186028     0.16700
C555        C  0.05965303  0.68400235  0.85991458    -0.01500
C556        C  0.01423794  0.70674543  0.87658001     0.07100
C557        C  0.96670014  0.69008069  0.86998688    -0.07500
C558        C  0.96381785  0.65211777  0.84684281     0.04500
C559        C  0.00868652  0.63099340  0.82936798    -0.14700
C560        C  0.05650884  0.64676869  0.83634700    -0.08000
C561        C  0.01452457  0.75134348  0.89883675     0.05400
C562        C  0.02133400  0.79985654  0.88735845    -0.09200
C563        C  0.01884638  0.84425563  0.90664179     0.00400
C564        C  0.01062476  0.84043240  0.93843742     0.00300
C565        C  0.00375246  0.79185768  0.95006579    -0.12700
C566        C  0.00565997  0.74741222  0.93053959     0.00800
C567        C  0.02016448  0.89408084  0.89249253     0.40100
C568        C  0.99870339  0.69822444  0.94347297     0.36700
C569        C  0.11011454  0.69727736  0.86734396     0.36400
C570        C  0.91461538  0.63485404  0.84144810     0.37200
N571        N  0.02023370  0.93342608  0.88020516    -0.43600
N572        N  0.99317826  0.65875388  0.95385227    -0.44100
N573        N  0.87548753  0.62042407  0.83707232    -0.41400
N574        N  0.15049564  0.70777195  0.87365644    -0.42900
H575        H  0.09151796  0.62936045  0.82366723     0.13300
H576        H  0.93163598  0.70730251  0.88267459     0.09800
H577        H  0.02677957  0.80348559  0.86291074     0.10900
H578        H  0.99632828  0.78883497  0.97433042     0.16700
loop_ 
_geom_bond_atom_site_label_1 
_geom_bond_atom_site_label_2 
_geom_bond_distance 
_geom_bond_site_symmetry_2 
_ccdc_geom_bond_type 
O1            C9   1.259   1_565  A
O1          Co21   1.999   1_655  S
O2           C10   1.276   1_455  A
O2          Co22   2.018   1_545  S
O3           C11   1.262   1_545  A
O3          Co23   1.958   1_545  S
O4           C12   1.267       .  A
O4          Co24   1.892       .  S
O5           C11   1.274       .  A
O5          Co22   2.028   1_655  S
O6           C12   1.293   1_655  A
O6          Co21   2.101   1_645  S
O7           C10   1.271       .  A
O7         Co313   1.976   1_654  S
O8            C9   1.257       .  A
O8         Co312   1.976   1_545  S
C9          C179   1.476       .  S
C10         C203   1.491       .  S
C11         C155   1.489   1_565  S
C12         C222   1.486       .  S
O13          C26   1.263   1_565  A
O13         Co21   1.887       .  S
O14          C27   1.264   1_455  A
O14         Co22   1.970       .  S
O15          C28   1.279   1_655  A
O15        Co312   2.025       .  S
O16          C29   1.263       .  A
O16        Co313   2.000   1_554  S
O17          C29   1.261   1_565  A
O17         Co22   1.982       .  S
O18          C28   1.269       .  A
O18         Co21   1.963       .  S
O19          C26   1.297       .  A
O19         Co24   2.112       .  S
O20          C27   1.275       .  A
O20         Co23   2.022       .  S
Co21         O25   2.006       .  S
Co22        O314   2.034       .  S
Co23        O297   1.978   1_564  S
Co23        O304   2.029   1_554  S
Co23        O314   2.021   1_655  S
Co24        O296   1.972   1_455  S
Co24        O305   2.002       .  S
Co24         O25   2.008   1_545  S
O25        Co311   2.034       .  S
O25        Co312   2.018   1_455  S
C26         C131   1.490       .  S
C27         C251   1.490       .  S
C28         C275   1.468       .  S
C29         C107   1.472       .  S
N30          C35   1.356   1_455  A
N30          C34   1.353   1_455  A
N30          H62   1.040       .  S
N31          C38   1.348   1_655  A
N31          C39   1.351   1_655  A
N32          C37   1.350       .  A
N32          C36   1.352       .  A
N32          H63   1.039   1_655  S
N33          C40   1.351   1_655  A
N33          C41   1.351       .  A
C34          C42   1.387       .  A
C34          C50   1.417   1_655  A
C35          C51   1.421       .  A
C35          C43   1.388       .  A
C36          C44   1.388       .  A
C36          C53   1.413       .  A
C37          C52   1.411       .  A
C37          C45   1.387       .  A
C38          C50   1.410       .  A
C38          C46   1.387       .  A
C39          C53   1.410   1_455  A
C39          C47   1.386       .  A
C40          C48   1.387       .  A
C40          C51   1.415   1_455  A
C41          C49   1.384   1_655  A
C41          C52   1.410       .  A
C42          C43   1.378       .  A
C42          H54   1.083       .  S
C43          H55   1.082       .  S
C44          C45   1.374       .  A
C44          H56   1.081       .  S
C45          H57   1.082       .  S
C46          C47   1.370       .  A
C46          H58   1.082       .  S
C47          H59   1.082       .  S
C48          C49   1.374       .  A
C48          H60   1.082       .  S
C49          H61   1.082       .  S
C50         C270   1.483       .  S
C51         C246   1.502       .  S
C52         C198   1.483       .  S
C53         C227   1.485       .  S
N64          C69   1.351       .  A
N64          C68   1.351       .  A
N64          H96   1.041       .  S
N65          C72   1.350       .  A
N65          C73   1.350       .  A
N66          C71   1.353       .  A
N66          C70   1.355       .  A
N66          H97   1.037       .  S
N67          C74   1.351       .  A
N67          C75   1.348       .  A
C68          C76   1.388   1_545  A
C68          C84   1.411       .  A
C69          C85   1.409       .  A
C69          C77   1.387   1_545  A
C70          C78   1.388   1_545  A
C70          C87   1.420       .  A
C71          C86   1.419       .  A
C71          C79   1.388   1_545  A
C72          C84   1.411       .  A
C72          C80   1.385       .  A
C73          C87   1.413       .  A
C73          C81   1.387       .  A
C74          C82   1.384       .  A
C74          C85   1.408       .  A
C75          C83   1.388       .  A
C75          C86   1.412       .  A
C76          C77   1.371       .  A
C76          H88   1.082       .  S
C77          H89   1.083       .  S
C78          C79   1.375       .  A
C78          H90   1.082       .  S
C79          H91   1.083       .  S
C80          C81   1.373       .  A
C80          H92   1.082       .  S
C81          H93   1.082       .  S
C82          C83   1.374       .  A
C82          H94   1.082       .  S
C83          H95   1.082       .  S
C84         C150   1.488       .  S
C85         C174   1.484       .  S
C86         C126   1.483       .  S
C87         C102   1.490       .  S
C98          C99   1.414       .  A
C98         C103   1.400       .  A
C98         C112   1.444       .  S
C99         C104   1.490       .  S
C99         C100   1.404   1_545  A
C100        C101   1.402       .  A
C100        H119   1.085       .  S
C101        C102   1.411   1_565  A
C101        C113   1.443       .  S
C102        C103   1.402       .  A
C103        H118   1.085       .  S
C104        C105   1.408   1_545  A
C104        C109   1.413       .  A
C105        C106   1.405       .  A
C105        H120   1.084       .  S
C106        C107   1.407   1_565  A
C106        C110   1.443       .  S
C107        C108   1.402       .  A
C108        C109   1.398       .  A
C108        H121   1.085       .  S
C109        C111   1.445       .  S
C110        N114   1.157       .  T
C111        N115   1.157       .  T
C112        N117   1.157       .  T
C113        N116   1.157       .  T
C122        C123   1.408   1_565  A
C122        C127   1.399       .  A
C122        C136   1.444       .  S
C123        C128   1.476       .  S
C123        C124   1.402       .  A
C124        C125   1.399       .  A
C124        H143   1.085       .  S
C125        C126   1.409       .  A
C125        C137   1.444       .  S
C126        C127   1.402   1_545  A
C127        H142   1.085       .  S
C128        C129   1.398       .  A
C128        C133   1.406   1_545  A
C129        C130   1.401       .  A
C129        H144   1.085       .  S
C130        C131   1.418       .  A
C130        C134   1.442       .  S
C131        C132   1.411   1_545  A
C132        C133   1.399       .  A
C132        H145   1.084       .  S
C133        C135   1.446       .  S
C134        N138   1.157       .  T
C135        N139   1.157       .  T
C136        N141   1.157       .  T
C137        N140   1.157       .  T
C146        C147   1.407       .  A
C146        C151   1.399       .  A
C146        C160   1.444       .  S
C147        C152   1.478       .  S
C147        C148   1.402   1_545  A
C148        C149   1.399       .  A
C148        H167   1.085       .  S
C149        C150   1.411   1_565  A
C149        C161   1.444       .  S
C150        C151   1.405       .  A
C151        H166   1.085       .  S
C152        C153   1.401   1_545  A
C152        C157   1.405       .  A
C153        C154   1.402       .  A
C153        H168   1.085       .  S
C154        C155   1.418   1_565  A
C154        C158   1.444       .  S
C155        C156   1.410       .  A
C156        C157   1.398       .  A
C156        H169   1.084       .  S
C157        C159   1.444       .  S
C158        N162   1.157       .  T
C159        N163   1.157       .  T
C160        N165   1.157       .  T
C161        N164   1.157       .  T
C170        C171   1.409       .  A
C170        C175   1.398       .  A
C170        C184   1.444       .  S
C171        C176   1.480       .  S
C171        C172   1.404   1_545  A
C172        C173   1.399       .  A
C172        H191   1.085       .  S
C173        C174   1.408   1_565  A
C173        C185   1.443       .  S
C174        C175   1.404       .  A
C175        H190   1.085       .  S
C176        C177   1.401       .  A
C176        C181   1.411   1_545  A
C177        C178   1.397       .  A
C177        H192   1.085       .  S
C178        C179   1.412       .  A
C178        C182   1.444       .  S
C179        C180   1.405   1_545  A
C180        C181   1.399       .  A
C180        H193   1.085       .  S
C181        C183   1.445       .  S
C182        N186   1.157       .  T
C183        N187   1.157       .  T
C184        N189   1.157       .  T
C185        N188   1.157       .  T
C194        C195   1.414   1_455  A
C194        C199   1.397       .  A
C194        C208   1.443       .  S
C195        C200   1.490       .  S
C195        C196   1.406       .  A
C196        C197   1.401       .  A
C196        H215   1.084       .  S
C197        C198   1.409       .  A
C197        C209   1.443       .  S
C198        C199   1.400   1_655  A
C199        H214   1.085       .  S
C200        C201   1.403       .  A
C200        C205   1.411       .  A
C201        C202   1.400       .  A
C201        H216   1.085       .  S
C202        C203   1.420       .  A
C202        C206   1.445   1_655  S
C203        C204   1.408       .  A
C204        C205   1.401       .  A
C204        H217   1.084       .  S
C205        C207   1.444       .  S
C206        N210   1.158       .  T
C207        N211   1.157       .  T
C208        N213   1.157       .  T
C209        N212   1.157       .  T
C218        C219   1.409   1_455  A
C218        C223   1.399       .  A
C218        C232   1.444       .  S
C219        C224   1.481       .  S
C219        C220   1.399       .  A
C220        C221   1.398       .  A
C220        H239   1.085       .  S
C221        C222   1.419   1_655  A
C221        C233   1.443       .  S
C222        C223   1.407       .  A
C223        H238   1.085       .  S
C224        C225   1.403   1_655  A
C224        C229   1.411       .  A
C225        C226   1.398       .  A
C225        H240   1.085       .  S
C226        C227   1.411   1_455  A
C226        C230   1.444       .  S
C227        C228   1.402       .  A
C228        C229   1.398       .  A
C228        H241   1.085       .  S
C229        C231   1.444       .  S
C230        N234   1.157       .  T
C231        N235   1.157       .  T
C232        N237   1.157       .  T
C233        N236   1.157       .  T
C242        C243   1.414       .  A
C242        C247   1.404       .  A
C242        C256   1.444       .  S
C243        C248   1.496   1_455  S
C243        C244   1.404   1_455  A
C244        C245   1.402       .  A
C244        H263   1.085       .  S
C245        C246   1.416       .  A
C245        C257   1.445       .  S
C246        C247   1.406   1_655  A
C247        H262   1.085       .  S
C248        C249   1.407   1_655  A
C248        C253   1.412       .  A
C249        C250   1.406       .  A
C249        H264   1.084       .  S
C250        C251   1.415   1_455  A
C250        C254   1.444       .  S
C251        C252   1.406       .  A
C252        C253   1.399       .  A
C252        H265   1.085       .  S
C253        C255   1.444       .  S
C254        N258   1.157       .  T
C255        N259   1.157       .  T
C256        N261   1.157       .  T
C257        N260   1.157       .  T
C266        C267   1.412       .  A
C266        C271   1.398       .  A
C266        C280   1.444       .  S
C267        C272   1.482       .  S
C267        C268   1.404   1_455  A
C268        C269   1.399       .  A
C268        H287   1.085       .  S
C269        C270   1.410   1_655  A
C269        C281   1.444       .  S
C270        C271   1.400       .  A
C271        H286   1.085       .  S
C272        C273   1.400       .  A
C272        C277   1.412       .  A
C273        C274   1.394       .  A
C273        H288   1.085       .  S
C274        C275   1.412       .  A
C274        C278   1.443       .  S
C275        C276   1.402       .  A
C276        C277   1.403       .  A
C276        H289   1.085       .  S
C277        C279   1.443       .  S
C278        N282   1.157       .  T
C279        N283   1.157       .  T
C280        N285   1.157       .  T
C281        N284   1.157       .  T
O290        C298   1.260   1_565  A
O290       Co310   1.999   1_655  S
O291        C299   1.280   1_455  A
O291       Co311   2.033   1_545  S
O292        C300   1.263   1_545  A
O292       Co312   1.961   1_545  S
O293        C301   1.267       .  A
O293       Co313   1.894       .  S
O294        C300   1.274       .  A
O294       Co311   2.027   1_655  S
O295        C301   1.295   1_655  A
O295       Co310   2.110   1_645  S
O296        C299   1.269       .  A
O297        C298   1.257       .  A
C298        C468   1.477       .  S
C299        C492   1.493       .  S
C300        C444   1.492   1_565  S
C301        C511   1.490       .  S
O302        C315   1.264   1_565  A
O302       Co310   1.886       .  S
O303        C316   1.266   1_455  A
O303       Co311   1.981       .  S
O304        C317   1.279   1_655  A
O305        C318   1.263       .  A
O306        C318   1.260   1_565  A
O306       Co311   1.983       .  S
O307        C317   1.272       .  A
O307       Co310   1.974       .  S
O308        C315   1.298       .  A
O308       Co313   2.118       .  S
O309        C316   1.274       .  A
O309       Co312   2.020       .  S
Co310       O314   2.001   1_556  S
Co313       O314   2.003   1_546  S
C315        C420   1.491       .  S
C316        C540   1.491       .  S
C317        C564   1.481       .  S
C318        C396   1.473       .  S
N319        C324   1.357   1_455  A
N319        C323   1.357   1_455  A
N319        H351   1.041       .  S
N320        C327   1.350   1_655  A
N320        C328   1.352   1_655  A
N321        C326   1.353       .  A
N321        C325   1.354       .  A
N321        H352   1.040   1_655  S
N322        C329   1.355       .  A
N322        C330   1.355       .  A
C323        C331   1.387       .  A
C323        C339   1.422   1_655  A
C324        C340   1.425       .  A
C324        C332   1.387       .  A
C325        C333   1.387       .  A
C325        C342   1.417       .  A
C326        C341   1.417       .  A
C326        C334   1.388       .  A
C327        C339   1.414       .  A
C327        C335   1.387       .  A
C328        C342   1.413   1_455  A
C328        C336   1.386       .  A
C329        C337   1.386   1_655  A
C329        C340   1.419       .  A
C330        C338   1.385       .  A
C330        C341   1.417       .  A
C331        C332   1.380       .  A
C331        H343   1.082       .  S
C332        H344   1.082       .  S
C333        C334   1.377       .  A
C333        H345   1.083       .  S
C334        H346   1.082       .  S
C335        C336   1.374       .  A
C335        H347   1.082       .  S
C336        H348   1.082       .  S
C337        C338   1.374   1_455  A
C337        H349   1.082       .  S
C338        H350   1.082   1_655  S
C339        C559   1.494       .  S
C340        C535   1.510       .  S
C341        C487   1.495       .  S
C342        C516   1.491       .  S
N353        C358   1.351       .  A
N353        C357   1.353       .  A
N353        H385   1.040       .  S
N354        C361   1.352       .  A
N354        C362   1.350       .  A
N355        C360   1.355       .  A
N355        C359   1.355   1_545  A
N355        H386   1.038       .  S
N356        C363   1.352       .  A
N356        C364   1.351       .  A
C357        C365   1.386   1_545  A
C357        C373   1.411       .  A
C358        C374   1.412       .  A
C358        C366   1.388   1_545  A
C359        C367   1.388       .  A
C359        C376   1.421   1_565  A
C360        C375   1.420       .  A
C360        C368   1.387   1_545  A
C361        C373   1.411       .  A
C361        C369   1.384       .  A
C362        C376   1.415       .  A
C362        C370   1.388       .  A
C363        C371   1.385       .  A
C363        C374   1.412       .  A
C364        C372   1.387       .  A
C364        C375   1.415       .  A
C365        C366   1.372       .  A
C365        H377   1.082       .  S
C366        H378   1.083       .  S
C367        C368   1.375       .  A
C367        H379   1.082       .  S
C368        H380   1.082       .  S
C369        C370   1.373       .  A
C369        H381   1.082       .  S
C370        H382   1.082       .  S
C371        C372   1.376       .  A
C371        H383   1.082       .  S
C372        H384   1.082       .  S
C373        C439   1.489       .  S
C374        C463   1.486       .  S
C375        C415   1.496       .  S
C376        C391   1.490       .  S
C387        C388   1.413       .  A
C387        C392   1.399       .  A
C387        C401   1.444       .  S
C388        C393   1.490       .  S
C388        C389   1.405   1_545  A
C389        C390   1.403       .  A
C389        H408   1.084       .  S
C390        C391   1.411   1_565  A
C390        C402   1.444       .  S
C391        C392   1.402       .  A
C392        H407   1.085       .  S
C393        C394   1.407   1_545  A
C393        C398   1.413       .  A
C394        C395   1.405       .  A
C394        H409   1.084       .  S
C395        C396   1.408   1_565  A
C395        C399   1.443       .  S
C396        C397   1.402       .  A
C397        C398   1.397       .  A
C397        H410   1.085       .  S
C398        C400   1.445       .  S
C399        N403   1.157       .  T
C400        N404   1.157       .  T
C401        N406   1.157       .  T
C402        N405   1.157       .  T
C411        C412   1.410   1_565  A
C411        C416   1.404       .  A
C411        C425   1.443       .  S
C412        C417   1.486       .  S
C412        C413   1.403       .  A
C413        C414   1.402       .  A
C413        H432   1.085       .  S
C414        C415   1.412       .  A
C414        C426   1.444       .  S
C415        C416   1.405   1_545  A
C416        H431   1.084       .  S
C417        C418   1.402       .  A
C417        C422   1.408   1_545  A
C418        C419   1.405       .  A
C418        H433   1.085       .  S
C419        C420   1.417       .  A
C419        C423   1.444       .  S
C420        C421   1.408   1_545  A
C421        C422   1.401       .  A
C421        H434   1.084       .  S
C422        C424   1.444       .  S
C423        N427   1.157       .  T
C424        N428   1.157       .  T
C425        N430   1.157       .  T
C426        N429   1.157       .  T
C435        C436   1.411       .  A
C435        C440   1.402       .  A
C435        C449   1.444       .  S
C436        C441   1.485       .  S
C436        C437   1.404   1_545  A
C437        C438   1.401       .  A
C437        H456   1.085       .  S
C438        C439   1.409   1_565  A
C438        C450   1.443       .  S
C439        C440   1.404       .  A
C440        H455   1.085       .  S
C441        C442   1.402   1_545  A
C441        C446   1.407       .  A
C442        C443   1.403       .  A
C442        H457   1.085       .  S
C443        C444   1.419   1_565  A
C443        C447   1.444       .  S
C444        C445   1.410       .  A
C445        C446   1.399       .  A
C445        H458   1.084       .  S
C446        C448   1.444       .  S
C447        N451   1.158       .  T
C448        N452   1.157       .  T
C449        N454   1.157       .  T
C450        N453   1.157       .  T
C459        C460   1.410       .  A
C459        C464   1.399       .  A
C459        C473   1.444       .  S
C460        C465   1.485       .  S
C460        C461   1.406   1_545  A
C461        C462   1.400       .  A
C461        H480   1.085       .  S
C462        C463   1.408   1_565  A
C462        C474   1.443       .  S
C463        C464   1.404       .  A
C464        H479   1.085       .  S
C465        C466   1.403       .  A
C465        C470   1.412   1_545  A
C466        C467   1.401       .  A
C466        H481   1.085       .  S
C467        C468   1.412       .  A
C467        C471   1.444       .  S
C468        C469   1.404   1_545  A
C469        C470   1.399       .  A
C469        H482   1.085       .  S
C470        C472   1.444       .  S
C471        N475   1.157       .  T
C472        N476   1.157       .  T
C473        N478   1.157       .  T
C474        N477   1.157       .  T
C483        C484   1.414   1_455  A
C483        C488   1.399       .  A
C483        C497   1.443       .  S
C484        C489   1.497       .  S
C484        C485   1.408       .  A
C485        C486   1.407       .  A
C485        H504   1.084       .  S
C486        C487   1.413       .  A
C486        C498   1.444       .  S
C487        C488   1.401   1_655  A
C488        H503   1.085       .  S
C489        C490   1.405       .  A
C489        C494   1.413       .  A
C490        C491   1.402       .  A
C490        H505   1.085       .  S
C491        C492   1.416       .  A
C491        C495   1.443       .  S
C492        C493   1.409       .  A
C493        C494   1.405       .  A
C493        H506   1.085       .  S
C494        C496   1.444       .  S
C495        N499   1.157       .  T
C496        N500   1.157       .  T
C497        N502   1.157       .  T
C498        N501   1.157       .  T
C507        C508   1.407   1_455  A
C507        C512   1.403       .  A
C507        C521   1.443       .  S
C508        C513   1.482       .  S
C508        C509   1.398       .  A
C509        C510   1.400       .  A
C509        H528   1.085       .  S
C510        C511   1.420   1_655  A
C510        C522   1.444       .  S
C511        C512   1.409       .  A
C512        H527   1.084       .  S
C513        C514   1.402   1_655  A
C513        C518   1.409       .  A
C514        C515   1.400       .  A
C514        H529   1.085       .  S
C515        C516   1.410   1_455  A
C515        C519   1.443       .  S
C516        C517   1.405       .  A
C517        C518   1.404       .  A
C517        H530   1.084       .  S
C518        C520   1.443       .  S
C519        N523   1.157       .  T
C520        N524   1.157       .  T
C521        N526   1.157       .  T
C522        N525   1.157       .  T
C531        C532   1.413   1_455  A
C531        C536   1.406       .  A
C531        C545   1.443       .  S
C532        C537   1.501       .  S
C532        C533   1.406       .  A
C533        C534   1.406       .  A
C533        H552   1.085       .  S
C534        C535   1.418       .  A
C534        C546   1.444       .  S
C535        C536   1.407   1_655  A
C536        H551   1.084       .  S
C537        C538   1.410   1_655  A
C537        C542   1.412       .  A
C538        C539   1.410       .  A
C538        H553   1.084       .  S
C539        C540   1.414   1_455  A
C539        C543   1.444       .  S
C540        C541   1.406       .  A
C541        C542   1.400       .  A
C541        H554   1.085       .  S
C542        C544   1.444       .  S
C543        N547   1.157       .  T
C544        N548   1.157       .  T
C545        N550   1.157       .  T
C546        N549   1.157       .  T
C555        C556   1.413       .  A
C555        C560   1.405       .  A
C555        C569   1.444       .  S
C556        C561   1.491       .  S
C556        C557   1.404   1_455  A
C557        C558   1.403       .  A
C557        H576   1.084       .  S
C558        C559   1.411   1_655  A
C558        C570   1.443       .  S
C559        C560   1.403       .  A
C560        H575   1.084       .  S
C561        C562   1.401       .  A
C561        C566   1.413       .  A
C562        C563   1.399       .  A
C562        H577   1.085       .  S
C563        C564   1.414       .  A
C563        C567   1.443       .  S
C564        C565   1.405       .  A
C565        C566   1.408       .  A
C565        H578   1.085   1_455  S
C566        C568   1.443   1_455  S
C567        N571   1.157       .  T
C568        N572   1.157       .  T
C569        N574   1.157       .  T
C570        N573   1.157       .  T
