geometry optimzed in LAMMPS
_audit_creation_date              2020-11-30 
_audit_creation_method            'lammps2cif' 
_symmetry_space_group_name_H-M    'P1' 
_symmetry_Int_Tables_number       1 
_symmetry_cell_setting            triclinic 
loop_ 
_symmetry_equiv_pos_as_xyz 
  x,y,z 
_cell_length_a                    54.03849938 
_cell_length_b                    53.859165544862506 
_cell_length_c                    53.73764487594242 
_cell_angle_alpha                 90.19819681218317 
_cell_angle_beta                  90.04057528567732 
_cell_angle_gamma                 90.01722840384996 
loop_ 
_atom_site_label 
_atom_site_type_symbol 
_atom_site_fract_x 
_atom_site_fract_y 
_atom_site_fract_z 
_atom_site_charge 
C1          C  0.66467973  0.22286662  0.49651340     0.86200
C2          C  0.64697094  0.22133216  0.47421377    -0.54000
C3          C  0.63227320  0.20059806  0.47378349     0.09100
C4          C  0.63636797  0.18335697  0.49632876     0.20100
C5          C  0.64764718  0.22065459  0.51941716    -0.54700
C6          C  0.63303858  0.19993998  0.51949961     0.09200
C7          C  0.67889732  0.19823446  0.49597672    -0.54300
C8          C  0.66423778  0.17759759  0.49590978     0.09800
H9          H  0.64637649  0.23546730  0.45986892     0.14300
H10         H  0.62465789  0.16642521  0.49632956     0.00100
H11         H  0.64684644  0.23385373  0.53458217     0.14600
H12         H  0.69898270  0.19728828  0.49591038     0.14400
C13         C  0.45536677  0.21551204  0.71897078     0.86200
C14         C  0.47744698  0.21260339  0.70096424    -0.54000
C15         C  0.47669899  0.19156816  0.68668085     0.09100
C16         C  0.45389407  0.17514504  0.69180698     0.20100
C17         C  0.43251531  0.21357161  0.70198810    -0.54700
C18         C  0.43136439  0.19238039  0.68769312     0.09200
C19         C  0.45528496  0.19142381  0.73403947    -0.54300
C20         C  0.45438459  0.17033749  0.71998804     0.09800
H21         H  0.49201035  0.22612268  0.69853341     0.14300
H22         H  0.45380065  0.15766876  0.68093917     0.00100
H23         H  0.41890357  0.22831852  0.70120831     0.14600
H24         H  0.45564124  0.19115933  0.75425401     0.14400
C25         C  0.23423277  0.21906125  0.50356503     0.86200
C26         C  0.25097523  0.21787616  0.52674230    -0.54000
C27         C  0.26587407  0.19736845  0.52776725     0.09100
C28         C  0.26290909  0.17990425  0.50509274     0.20100
C29         C  0.25229665  0.21703034  0.48160260    -0.54700
C30         C  0.26735662  0.19653914  0.48209680     0.09200
C31         C  0.22029509  0.19427983  0.50369112    -0.54300
C32         C  0.23508619  0.17379426  0.50431428     0.09800
H33         H  0.25162652  0.23190123  0.54114097     0.14300
H34         H  0.27460879  0.16302096  0.50586193     0.00100
H35         H  0.25314673  0.23100258  0.46712835     0.14600
H36         H  0.20022688  0.19312332  0.50309335     0.14400
C37         C  0.44520315  0.21517648  0.28051103     0.86200
C38         C  0.42216620  0.21330098  0.29703849    -0.54000
C39         C  0.42155792  0.19294726  0.31219947     0.09100
C40         C  0.44466798  0.17620795  0.30948998     0.20100
C41         C  0.46695379  0.21411587  0.29910315    -0.54700
C42         C  0.46696395  0.19364503  0.31428155     0.09200
C43         C  0.44640673  0.19032055  0.26660375    -0.54300
C44         C  0.44606686  0.16992147  0.28155558     0.09800
H45         H  0.40774815  0.22733215  0.29689804     0.14300
H46         H  0.44421055  0.15932687  0.32118289     0.00100
H47         H  0.48072453  0.22852339  0.30089868     0.14600
H48         H  0.44737108  0.18905839  0.24644254     0.14400
C49         C  0.06602657  0.82325150  0.49808039     0.86200
C50         C  0.06424653  0.80628912  0.52091331    -0.54000
C51         C  0.04387730  0.79119118  0.52131455     0.09100
C52         C  0.02672718  0.79486630  0.49868767     0.20100
C53         C  0.06419954  0.80516527  0.47570433    -0.54700
C54         C  0.04361783  0.79021645  0.47606023     0.09200
C55         C  0.04151404  0.83748703  0.49762855    -0.54300
C56         C  0.02096178  0.82282519  0.49795150     0.09800
H57         H  0.07824003  0.80623170  0.53541560     0.14300
H58         H  0.00986644  0.78315000  0.49883753     0.00100
H59         H  0.07808315  0.80336108  0.46133954     0.14600
H60         H  0.04058882  0.85762715  0.49696211     0.14400
C61         C  0.06824430  0.60624130  0.71803912     0.86200
C62         C  0.06564604  0.58282141  0.70174370    -0.54000
C63         C  0.04604567  0.58332268  0.68560708     0.09100
C64         C  0.03054569  0.60726895  0.68740716     0.20100
C65         C  0.06908737  0.62768257  0.69905997    -0.54700
C66         C  0.04948439  0.62811611  0.68288686     0.09200
C67         C  0.04308142  0.60908579  0.73083965    -0.54300
C68         C  0.02330857  0.60945993  0.71502642     0.09800
H69         H  0.07886821  0.56765134  0.70227143     0.14300
H70         H  0.01445809  0.60754344  0.67456777     0.00100
H71         H  0.08393647  0.64105136  0.69764471     0.14600
H72         H  0.04112507  0.61016097  0.75093740     0.14400
C73         C  0.06834332  0.38127332  0.50655004     0.86200
C74         C  0.07020694  0.39995196  0.48518747    -0.54000
C75         C  0.05128599  0.41682453  0.48415150     0.09100
C76         C  0.03180975  0.41320499  0.50480833     0.20100
C77         C  0.06568839  0.39729241  0.53014865    -0.54700
C78         C  0.04674277  0.41413424  0.52926083     0.09200
C79         C  0.04263826  0.36938721  0.50340753    -0.54300
C80         C  0.02354582  0.38595533  0.50252895     0.09800
H81         H  0.08535720  0.39961887  0.47193156     0.14300
H82         H  0.01625047  0.42663025  0.50428570     0.00100
H83         H  0.07813004  0.39580017  0.54595077     0.14600
H84         H  0.03916299  0.34962103  0.50316679     0.14400
C85         C  0.07040749  0.59897083  0.28745972     0.86200
C86         C  0.06783693  0.62326863  0.30227522    -0.54000
C87         C  0.04699671  0.62468221  0.31665783     0.09100
C88         C  0.03048097  0.60137921  0.31494783     0.20100
C89         C  0.06859080  0.57848793  0.30738087    -0.54700
C90         C  0.04779187  0.57979605  0.32181764     0.09200
C91         C  0.04616571  0.59673131  0.27275560    -0.54300
C92         C  0.02528563  0.59811315  0.28696658     0.09800
H93         H  0.08163922  0.63791426  0.30166944     0.14300
H94         H  0.01348700  0.60247126  0.32648867     0.00100
H95         H  0.08219708  0.56409423  0.31033556     0.14600
H96         H  0.04564486  0.59461392  0.25264683     0.14400
C97         C  0.45066098  0.80798834  0.11739221     0.86200
C98         C  0.42832701  0.79047442  0.11473605    -0.54000
C99         C  0.42764432  0.77704622  0.09297039     0.09100
C100        C  0.44997078  0.78248368  0.07585620     0.20100
C101        C  0.47335404  0.79099172  0.11367996    -0.54700
C102        C  0.47293652  0.77762183  0.09207543     0.09200
C103        C  0.45014075  0.82401214  0.09384206    -0.54300
C104        C  0.44975482  0.81082233  0.07213829     0.09800
H105        H  0.41463365  0.78866876  0.12936408     0.14300
H106        H  0.45011536  0.77208468  0.05802976     0.00100
H107        H  0.48850956  0.78900957  0.12666191     0.14600
H108        H  0.45022876  0.84418036  0.09437066     0.14400
C109        C  0.66823012  0.59318218  0.11727477     0.86200
C110        C  0.65227285  0.61680553  0.11709246    -0.54000
C111        C  0.63822903  0.61993656  0.09605461     0.09100
C112        C  0.64124489  0.59839648  0.07720903     0.20100
C113        C  0.64953646  0.57196387  0.11292227    -0.54700
C114        C  0.63543805  0.57470182  0.09200952     0.09200
C115        C  0.68319051  0.59428627  0.09308236    -0.54300
C116        C  0.66919779  0.59696026  0.07214985     0.09800
H117        H  0.65211996  0.62967184  0.13266031     0.14300
H118        H  0.63025493  0.60014399  0.05989926     0.00100
H119        H  0.64688257  0.55626106  0.12511457     0.14600
H120        H  0.70324249  0.59287658  0.09262396     0.14400
C121        C  0.22712151  0.59888424  0.11652880     0.86200
C122        C  0.24443430  0.57618933  0.11570352    -0.54000
C123        C  0.25967647  0.57543497  0.09541733     0.09100
C124        C  0.25645345  0.59775033  0.07776863     0.20100
C125        C  0.24456471  0.62126713  0.11462143    -0.54700
C126        C  0.25982963  0.62104515  0.09429297     0.09200
C127        C  0.21353591  0.59801999  0.09147758    -0.54300
C128        C  0.22871775  0.59754555  0.07120618     0.09800
H129        H  0.24503895  0.56175666  0.12960946     0.14300
H130        H  0.26859325  0.59716581  0.06113515     0.00100
H131        H  0.24465975  0.63606201  0.12839348     0.14600
H132        H  0.19348256  0.59799119  0.08997936     0.14400
C133        C  0.44967895  0.38654753  0.12421452     0.86200
C134        C  0.47312628  0.40242881  0.12051451    -0.54000
C135        C  0.47304692  0.41637704  0.09932882     0.09100
C136        C  0.44936227  0.41334350  0.08367119     0.20100
C137        C  0.42824081  0.40517770  0.12282513    -0.54700
C138        C  0.42776360  0.41927682  0.10161115     0.09200
C139        C  0.44779974  0.37133897  0.10003229    -0.54300
C140        C  0.44755282  0.38524913  0.07884874     0.09800
H141        H  0.48883011  0.40270282  0.13297594     0.14300
H142        H  0.44953515  0.42423037  0.06621542     0.00100
H143        H  0.41487378  0.40707472  0.13775885     0.14600
H144        H  0.44702450  0.35118438  0.09974932     0.14400
C145        C  0.66479549  0.98566663  0.49985320     0.86200
C146        C  0.64760165  0.98791825  0.52252279    -0.54000
C147        C  0.63248296  0.00842980  0.52248368     0.09100
C148        C  0.63606429  0.02473687  0.49906653     0.20100
C149        C  0.64702916  0.98648697  0.47739168    -0.54700
C150        C  0.63200850  0.00693632  0.47681918     0.09200
C151        C  0.67866953  0.01039647  0.49887361    -0.54300
C152        C  0.66386961  0.03081934  0.49859486     0.09800
H153        H  0.64729655  0.97390190  0.53695022     0.14300
H154        H  0.62453581  0.04170232  0.49839181     0.00100
H155        H  0.64550769  0.97205161  0.46345812     0.14600
H156        H  0.69874697  0.01156867  0.49864114     0.14400
C157        C  0.45139831  0.97897123  0.72082275     0.86200
C158        C  0.42864146  0.98082801  0.70367637    -0.54000
C159        C  0.42837577  0.00140866  0.68887610     0.09100
C160        C  0.45118781  0.01835041  0.69235598     0.20100
C161        C  0.47355630  0.98059939  0.70310849    -0.54700
C162        C  0.47382811  0.00124807  0.68834235     0.09200
C163        C  0.45155675  0.00363353  0.73513251    -0.54300
C164        C  0.45154007  0.02425288  0.72047441     0.09800
H165        H  0.41382206  0.96736568  0.70278719     0.14300
H166        H  0.45101187  0.03518396  0.68049935     0.00100
H167        H  0.48794826  0.96654157  0.70256479     0.14600
H168        H  0.45174822  0.00460426  0.75533448     0.14400
C169        C  0.44861219  0.97608447  0.27812859     0.86200
C170        C  0.47134457  0.97668114  0.29543674    -0.54000
C171        C  0.47249846  0.99697268  0.31080451     0.09100
C172        C  0.45025728  0.01473281  0.30785553     0.20100
C173        C  0.42650085  0.97811689  0.29592049    -0.54700
C174        C  0.42703952  0.99835123  0.31137248     0.09200
C175        C  0.44936924  0.00112042  0.26461961    -0.54300
C176        C  0.45016958  0.02136144  0.27999394     0.09800
H177        H  0.48529852  0.96234701  0.29617754     0.14300
H178        H  0.45086532  0.03129923  0.32017295     0.00100
H179        H  0.41156384  0.96462319  0.29609837     0.14600
H180        H  0.44907148  0.00261894  0.24446321     0.14400
C181        C  0.23612149  0.98175209  0.49913899     0.86200
C182        C  0.25408846  0.98401466  0.47709735    -0.54000
C183        C  0.26854952  0.00485986  0.47748958     0.09100
C184        C  0.26379212  0.02155725  0.50044121     0.20100
C185        C  0.25324626  0.98335032  0.52209715    -0.54700
C186        C  0.26784790  0.00428291  0.52312544     0.09200
C187        C  0.22155068  0.00607982  0.49933334    -0.54300
C188        C  0.23580506  0.02692084  0.50006915     0.09800
H189        H  0.25570802  0.96981601  0.46280785     0.14300
H190        H  0.27476520  0.03887857  0.50040806     0.00100
H191        H  0.25471001  0.96847781  0.53545693     0.14600
H192        H  0.20145257  0.00666514  0.49898294     0.14400
O193        O  0.23768573  0.07163502  0.50174748    -0.58100
C194        C  0.22452800  0.14848434  0.50388648     0.74500
O195        O  0.16485957  0.10012614  0.47372085    -0.59200
C196        C  0.22473596  0.05204449  0.50068453     0.74500
C197        C  0.17726968  0.10011924  0.55032191     0.76900
Cd198      Cd  0.20129710  0.10029893  0.50232997     1.37500
O199        O  0.23775226  0.12905352  0.50358624    -0.58100
O200        O  0.20048117  0.09854561  0.54775027    -0.56900
C201        C  0.17768786  0.10254897  0.45415731     0.76900
O202        O  0.16465139  0.10151474  0.53050529    -0.59300
O203        O  0.20135701  0.14529178  0.50361744    -0.57700
O204        O  0.20151131  0.05496679  0.50028996    -0.57700
O205        O  0.20089849  0.10363138  0.45705289    -0.56900
O206        O  0.47795708  0.09793038  0.21212493    -0.58100
C207        C  0.40042608  0.09372635  0.22674696     0.74500
O208        O  0.45031320  0.06603455  0.28401404    -0.59200
C209        C  0.49728585  0.09860257  0.22551478     0.74500
C210        C  0.44702402  0.14447115  0.27114020     0.76900
Cd211      Cd  0.44911561  0.09587514  0.24843262     1.37500
O212        O  0.41933946  0.09403432  0.21278109    -0.58100
O213        O  0.44716918  0.14096094  0.24785317    -0.56900
C214        C  0.45039055  0.04695491  0.27010022     0.76900
O215        O  0.44779889  0.12521719  0.28465661    -0.59300
O216        O  0.40435751  0.09439644  0.24994079    -0.57700
O217        O  0.49406421  0.09796320  0.24882727    -0.57700
O218        O  0.45041048  0.05078271  0.24689343    -0.56900
C219        C  0.32991688  0.09581762  0.21931335     0.86200
C220        C  0.33249703  0.11850140  0.20196150    -0.54000
C221        C  0.35231787  0.11720260  0.18615724     0.09100
C222        C  0.36789898  0.09349935  0.18917282     0.20100
C223        C  0.32946000  0.07352133  0.20146842    -0.54700
C224        C  0.34909330  0.07227031  0.18545528     0.09200
C225        C  0.35494697  0.09420611  0.23254137    -0.54300
C226        C  0.37486632  0.09316153  0.21698041     0.09800
H227        H  0.31962599  0.13383709  0.20110441     0.14300
H228        H  0.38408343  0.09267263  0.17649449     0.00100
H229        H  0.31437992  0.06018941  0.20120536     0.14600
H230        H  0.35669951  0.09448788  0.25268528     0.14400
C231        C  0.32955098  0.31505181  0.00772243     0.86200
C232        C  0.33020231  0.29646524  0.98590084    -0.54000
C233        C  0.35105548  0.28194364  0.98487457     0.09100
C234        C  0.36920618  0.28724291  0.00658311     0.20100
C235        C  0.33283850  0.29854471  0.03083186    -0.54700
C236        C  0.35356442  0.28406978  0.03031698     0.09200
C237        C  0.35372812  0.32966087  0.00569507    -0.54300
C238        C  0.37452122  0.31532045  0.00532962     0.09800
H239        H  0.31492627  0.29452891  0.97295583     0.14300
H240        H  0.38631594  0.27590916  0.00652228     0.00100
H241        H  0.31956818  0.29742367  0.04591761     0.14600
H242        H  0.35427875  0.34982025  0.00518183     0.14400
C243        C  0.33120321  0.87729823  0.99677759     0.86200
C244        C  0.33144462  0.89580536  0.01880629    -0.54000
C245        C  0.35146420  0.91146675  0.01916743     0.09100
C246        C  0.36949953  0.90709877  0.99737030     0.20100
C247        C  0.33337172  0.89385692  0.97367377    -0.54700
C248        C  0.35338904  0.90940982  0.97379083     0.09200
C249        C  0.35620397  0.86399434  0.99856102    -0.54300
C250        C  0.37625105  0.87940236  0.99884013     0.09800
H251        H  0.31745275  0.89660399  0.03312695     0.14300
H252        H  0.38585541  0.91954174  0.99731195     0.00100
H253        H  0.31995005  0.89342173  0.95862762     0.14600
H254        H  0.35782626  0.84390274  0.99932665     0.14400
C255        C  0.33207058  0.09875602  0.78332434     0.86200
C256        C  0.33340434  0.07698501  0.80191855    -0.54000
C257        C  0.35336478  0.07784195  0.81775499     0.09100
C258        C  0.37002124  0.10082629  0.81361982     0.20100
C259        C  0.33269822  0.12203473  0.79985210    -0.54700
C260        C  0.35248004  0.12344538  0.81571759     0.09200
C261        C  0.35729359  0.09829663  0.77028900    -0.54300
C262        C  0.37715301  0.09944668  0.78592347     0.09800
H263        H  0.31985697  0.06226618  0.80290138     0.14300
H264        H  0.38644283  0.10182386  0.82594421     0.00100
H265        H  0.31826525  0.13603159  0.79916281     0.14600
H266        H  0.35919572  0.09713015  0.75018901     0.14400
C267        C  0.56651798  0.32144557  0.00105857     0.86200
C268        C  0.56740779  0.30228503  0.02215559    -0.54000
C269        C  0.54760643  0.28646642  0.02279721     0.09100
C270        C  0.52841144  0.29140573  0.00221494     0.20100
C271        C  0.56339792  0.30541613  0.97733537    -0.54700
C272        C  0.54355933  0.28951731  0.97802849     0.09200
C273        C  0.54156271  0.33455402  0.00410539    -0.54300
C274        C  0.52160800  0.31904872  0.00461080     0.09800
H275        H  0.58278726  0.30100816  0.03511149     0.14300
H276        H  0.51231719  0.27862843  0.00284216     0.00100
H277        H  0.57590761  0.30568104  0.96164999     0.14600
H278        H  0.53988427  0.35462747  0.00529872     0.14400
C279        C  0.56764615  0.09993463  0.21571710     0.86200
C280        C  0.56602702  0.07663896  0.19923198    -0.54000
C281        C  0.54561582  0.07566321  0.18423504     0.09100
C282        C  0.52855284  0.09840872  0.18691039     0.20100
C283        C  0.56595683  0.12164943  0.19715034    -0.54700
C284        C  0.54560987  0.12080712  0.18187219     0.09200
C285        C  0.54297869  0.10071213  0.22975854    -0.54300
C286        C  0.52250658  0.09973190  0.21490365     0.09800
H287        H  0.58008161  0.06222469  0.19932213     0.14300
H288        H  0.51191820  0.09746062  0.17483094     0.00100
H289        H  0.57944381  0.13640387  0.19579747     0.14600
H290        H  0.54190095  0.10140840  0.24993922     0.14400
C291        C  0.57017924  0.10417593  0.78596818     0.86200
C292        C  0.56738953  0.12545973  0.80496825    -0.54000
C293        C  0.54778966  0.12287537  0.82079239     0.09100
C294        C  0.53236848  0.09925638  0.81608734     0.20100
C295        C  0.57128290  0.08084340  0.80228671    -0.54700
C296        C  0.55163019  0.07820020  0.81813991     0.09200
C297        C  0.54517220  0.10271128  0.77279368    -0.54300
C298        C  0.52532585  0.10015675  0.78826451     0.09800
H299        H  0.58050553  0.14047321  0.80734665     0.14300
H300        H  0.51643636  0.09726132  0.82897104     0.00100
H301        H  0.58669239  0.06790647  0.80182855     0.14600
H302        H  0.54341510  0.10370434  0.75267498     0.14400
C303        C  0.56956197  0.87880683  0.00090950     0.86200
C304        C  0.56868761  0.89541581  0.97773842    -0.54000
C305        C  0.54865252  0.91090242  0.97660221     0.09100
C306        C  0.53101231  0.90815424  0.99895201     0.20100
C307        C  0.56774558  0.89726565  0.02292587    -0.54700
C308        C  0.54761937  0.91271796  0.02182922     0.09200
C309        C  0.54464519  0.86520704  0.00105310    -0.54300
C310        C  0.52445762  0.88037491  0.00000707     0.09800
H311        H  0.58288938  0.89485010  0.96346669     0.14300
H312        H  0.51454467  0.92042156  0.99828164     0.00100
H313        H  0.58128677  0.89894875  0.03765484     0.14600
H314        H  0.54319005  0.84510675  0.00192185     0.14400
C315        C  0.44879368  0.37910429  0.88564629     0.86200
C316        C  0.42716779  0.39755267  0.88636600    -0.54000
C317        C  0.42720690  0.41331473  0.90645648     0.09100
C318        C  0.44961028  0.40928919  0.92395866     0.20100
C319        C  0.47197900  0.39574290  0.88697960    -0.54700
C320        C  0.47260455  0.41143910  0.90704398     0.09200
C321        C  0.44805055  0.36604062  0.91089740    -0.54300
C322        C  0.44842531  0.38161278  0.93095979     0.09800
H323        H  0.41321622  0.39807765  0.87184765     0.14300
H324        H  0.45012902  0.42164062  0.94049501     0.00100
H325        H  0.48656757  0.39592728  0.87323565     0.14600
H326        H  0.44726263  0.34596231  0.91266119     0.14400
C327        C  0.23591008  0.60085134  0.87947460     0.86200
C328        C  0.25529957  0.62149666  0.88372021    -0.54000
C329        C  0.26874988  0.61900815  0.90519555     0.09100
C330        C  0.26170816  0.59581592  0.92038336     0.20100
C331        C  0.25089748  0.57667723  0.88074423    -0.54700
C332        C  0.26431202  0.57369050  0.90217250     0.09200
C333        C  0.22037088  0.60108171  0.90334604    -0.54300
C334        C  0.23372696  0.59838876  0.92469062     0.09800
H335        H  0.25858448  0.63672581  0.87110634     0.14300
H336        H  0.27214464  0.59385394  0.93802442     0.00100
H337        H  0.25088884  0.56324345  0.86564756     0.14600
H338        H  0.20036837  0.60314660  0.90327590     0.14400
C339        C  0.44648332  0.81252005  0.88180878     0.86200
C340        C  0.46945263  0.79583188  0.88242221    -0.54000
C341        C  0.47187031  0.78194493  0.90353930     0.09100
C342        C  0.45035235  0.78559146  0.92207856     0.20100
C343        C  0.42468550  0.79455122  0.88592457    -0.54700
C344        C  0.42658006  0.78060417  0.90704806     0.09200
C345        C  0.44775388  0.82771063  0.90598323    -0.54300
C346        C  0.44974140  0.81373124  0.92702339     0.09800
H347        H  0.48276032  0.79528920  0.86730126     0.14300
H348        H  0.45185921  0.77443292  0.93933381     0.00100
H349        H  0.40885999  0.79271915  0.87373908     0.14600
H350        H  0.44693975  0.84786575  0.90634838     0.14400
C351        C  0.66551139  0.59654753  0.88117183     0.86200
C352        C  0.64803303  0.57408327  0.88427503    -0.54000
C353        C  0.63420278  0.57458560  0.90559138     0.09100
C354        C  0.63920716  0.59761475  0.92198724     0.20100
C355        C  0.64824811  0.61916252  0.88334573    -0.54700
C356        C  0.63433419  0.62008746  0.90475473     0.09200
C357        C  0.68089774  0.59692936  0.90513287    -0.54300
C358        C  0.66731376  0.59758342  0.92644624     0.09800
H359        H  0.64568984  0.55944579  0.87067809     0.14300
H360        H  0.62880189  0.59752747  0.93968799     0.00100
H361        H  0.64700251  0.63274114  0.86857073     0.14600
H362        H  0.70100613  0.59675968  0.90514614     0.14400
O363        O  0.23427408  0.59592288  0.96932540    -0.58100
C364        C  0.21877245  0.59716001  0.04564410     0.74500
O365        O  0.16164417  0.62609824  0.99667897    -0.59200
C366        C  0.22191854  0.59805569  0.94939808     0.74500
C367        C  0.17447406  0.54921327  0.99498367     0.76900
Cd368      Cd  0.19738996  0.59731178  0.99671624     1.37500
O369        O  0.23257205  0.59773499  0.02659504    -0.58100
O370        O  0.19760985  0.55246995  0.99631920    -0.56900
C371        C  0.17489691  0.64550024  0.99774774     0.76900
O372        O  0.16116510  0.56856847  0.99425990    -0.59300
O373        O  0.19568968  0.59640571  0.04179955    -0.57700
O374        O  0.19869284  0.59989381  0.95160802    -0.57700
O375        O  0.19808856  0.64238081  0.99818119    -0.56900
O376        O  0.44735940  0.38585717  0.97571594    -0.58100
C377        C  0.44688343  0.37388671  0.05379477     0.74500
O378        O  0.41909687  0.31354186  0.00644364    -0.59200
C379        C  0.44792249  0.37191679  0.95665618     0.74500
C380        C  0.49608030  0.32876064  0.00570249     0.76900
Cd381      Cd  0.44730286  0.35023739  0.00562338     1.37500
O382        O  0.44690014  0.38675947  0.03408311    -0.58100
O383        O  0.49212855  0.35187135  0.00686425    -0.56900
C384        C  0.39952580  0.32645592  0.00514693     0.76900
O385        O  0.47717794  0.31482064  0.00500742    -0.59300
O386        O  0.44661321  0.35055226  0.05103371    -0.57700
O387        O  0.44805522  0.34878354  0.96057010    -0.57700
O388        O  0.40232206  0.34975181  0.00404047    -0.56900
C389        C  0.95292782  0.71614783  0.21938986     0.86200
C390        C  0.97530936  0.71370979  0.20175439    -0.54000
C391        C  0.97493999  0.69292013  0.18700114     0.09100
C392        C  0.95185547  0.67655132  0.19095855     0.20100
C393        C  0.93038921  0.71473281  0.20208765    -0.54700
C394        C  0.92950836  0.69404779  0.18729666     0.09200
C395        C  0.95265507  0.69158408  0.23374290    -0.54300
C396        C  0.95209149  0.67087386  0.21902892     0.09800
H397        H  0.99029211  0.72694624  0.20062679     0.14300
H398        H  0.95134141  0.65958405  0.17919743     0.00100
H399        H  0.91628250  0.72908532  0.20165611     0.14600
H400        H  0.95297235  0.69073705  0.25393934     0.14400
C401        C  0.16378488  0.71581747  0.99994607     0.86200
C402        C  0.14752869  0.71445477  0.97649397    -0.54000
C403        C  0.13311884  0.69354824  0.97470326     0.09100
C404        C  0.13621273  0.67595526  0.99718583     0.20100
C405        C  0.14520528  0.71301597  0.02155670    -0.54700
C406        C  0.13085594  0.69209977  0.02034202     0.09200
C407        C  0.17840399  0.69144093  0.99993564    -0.54300
C408        C  0.16411144  0.67062693  0.99840904     0.09800
H409        H  0.14736353  0.72916328  0.96275322     0.14300
H410        H  0.12511982  0.65869119  0.99620127     0.00100
H411        H  0.14270216  0.72648790  0.03626014     0.14600
H412        H  0.19847839  0.69079253  0.00089700     0.14400
C413        C  0.73632299  0.71765663  0.00153743     0.86200
C414        C  0.75526946  0.71555880  0.02273752    -0.54000
C415        C  0.77003088  0.69486683  0.02167693     0.09100
C416        C  0.76452636  0.67819181  0.99879924     0.20100
C417        C  0.75219197  0.71619030  0.97777039    -0.54700
C418        C  0.76674912  0.69550372  0.97608432     0.09200
C419        C  0.72211349  0.69301634  0.00199126    -0.54300
C420        C  0.73668625  0.67236655  0.00050969     0.09800
H421        H  0.75693187  0.72964229  0.03713126     0.14300
H422        H  0.77606357  0.66121777  0.99752686     0.00100
H423        H  0.75277187  0.73031957  0.96356659     0.14600
H424        H  0.70206353  0.69208717  0.00318814     0.14400
C425        C  0.94693193  0.72891719  0.78162437     0.86200
C426        C  0.92572442  0.72523034  0.80044908    -0.54000
C427        C  0.92767525  0.70416934  0.81448085     0.09100
C428        C  0.95107563  0.68879412  0.80866368     0.20100
C429        C  0.97044865  0.72804600  0.79759468    -0.54700
C430        C  0.97299152  0.70703466  0.81160050     0.09200
C431        C  0.94733912  0.70468717  0.76650073    -0.54300
C432        C  0.94942344  0.68369804  0.78052828     0.09800
H433        H  0.91058999  0.73804465  0.80315820     0.14300
H434        H  0.95286142  0.67156469  0.81976171     0.00100
H435        H  0.98392314  0.74300294  0.79771587     0.14600
H436        H  0.94586083  0.70425425  0.74633890     0.14400
C437        C  0.16517052  0.47876272  0.99654796     0.86200
C438        C  0.14766019  0.48139284  0.01916679    -0.54000
C439        C  0.13240006  0.50172779  0.01814971     0.09100
C440        C  0.13621986  0.51768023  0.99468898     0.20100
C441        C  0.14771194  0.47912155  0.97402070    -0.54700
C442        C  0.13243590  0.49931735  0.97297849     0.09200
C443        C  0.17895122  0.50354283  0.99561427    -0.54300
C444        C  0.16403234  0.52390864  0.99468251     0.09800
H445        H  0.14637451  0.46815577  0.03419269     0.14300
H446        H  0.12410550  0.53429398  0.99390794     0.00100
H447        H  0.14723821  0.46429291  0.96027468     0.14600
H448        H  0.19902185  0.50478615  0.99596769     0.14400
C449        C  0.95220261  0.47876697  0.21742766     0.86200
C450        C  0.92915723  0.48061744  0.20060266    -0.54000
C451        C  0.92842311  0.50130460  0.18584462     0.09100
C452        C  0.95136649  0.51821396  0.18900201     0.20100
C453        C  0.97404959  0.48050101  0.19931666    -0.54700
C454        C  0.97388551  0.50107874  0.18447498     0.09200
C455        C  0.95255132  0.50339717  0.23175129    -0.54300
C456        C  0.95223102  0.52405448  0.21713321     0.09800
H457        H  0.91470550  0.46679521  0.19974002     0.14300
H458        H  0.95120342  0.53510584  0.17724014     0.00100
H459        H  0.98855568  0.46656748  0.19845740     0.14600
H460        H  0.95309405  0.50431766  0.25194755     0.14400
C461        C  0.73711074  0.47963229  0.99566297     0.86200
C462        C  0.75329989  0.48329754  0.97232014    -0.54000
C463        C  0.76765348  0.50415980  0.97272610     0.09100
C464        C  0.76486626  0.51952721  0.99679135     0.20100
C465        C  0.75561799  0.48035283  0.01740828    -0.54700
C466        C  0.77024858  0.50119886  0.01828914     0.09200
C467        C  0.72257231  0.50403176  0.99789284    -0.54300
C468        C  0.73694117  0.52489418  0.99844408     0.09800
H469        H  0.75383731  0.47086929  0.95653222     0.14300
H470        H  0.77617570  0.53669850  0.99702854     0.00100
H471        H  0.75711750  0.46526472  0.03064647     0.14600
H472        H  0.70248859  0.50468724  0.99853226     0.14400
C473        C  0.94880831  0.49057543  0.77519988     0.86200
C474        C  0.97168014  0.49152083  0.79237879    -0.54000
C475        C  0.97230241  0.51150720  0.80815203     0.09100
C476        C  0.95006953  0.52910384  0.80504436     0.20100
C477        C  0.92674818  0.49220342  0.79318511    -0.54700
C478        C  0.92730864  0.51226208  0.80887665     0.09200
C479        C  0.94909601  0.51562508  0.76176375    -0.54300
C480        C  0.94964742  0.53581312  0.77719901     0.09800
H481        H  0.98620799  0.47777101  0.79265975     0.14300
H482        H  0.95046163  0.54552126  0.81756788     0.00100
H483        H  0.91236685  0.47813553  0.79391021     0.14600
H484        H  0.94865102  0.51717512  0.74161540     0.14400
C485        C  0.95123914  0.31806881  0.61924587     0.86200
C486        C  0.92843704  0.30118778  0.61659385    -0.54000
C487        C  0.92761255  0.28748194  0.59501991     0.09100
C488        C  0.95030204  0.29196764  0.57811787     0.20100
C489        C  0.97344175  0.30029685  0.61615053    -0.54700
C490        C  0.97296795  0.28662203  0.59467011     0.09200
C491        C  0.95150088  0.33369715  0.59546964    -0.54300
C492        C  0.95085175  0.32020089  0.57400629     0.09800
H493        H  0.91451134  0.30004988  0.63106541     0.14300
H494        H  0.95031854  0.28143587  0.56038244     0.00100
H495        H  0.98824033  0.29807113  0.62950448     0.14600
H496        H  0.95189627  0.35386905  0.59568025     0.14400
C497        C  0.16442289  0.09791660  0.62055512     0.86200
C498        C  0.14945206  0.12217321  0.61958278    -0.54000
C499        C  0.13561622  0.12534110  0.59837928     0.09100
C500        C  0.13786184  0.10315495  0.58013779     0.20100
C501        C  0.14474900  0.07747169  0.61672757    -0.54700
C502        C  0.13082584  0.08019996  0.59563167     0.09200
C503        C  0.17951393  0.09768139  0.59642799    -0.54300
C504        C  0.16580077  0.10029510  0.57528972     0.09800
H505        H  0.14961906  0.13532284  0.63490374     0.14300
H506        H  0.12707111  0.10491886  0.56270517     0.00100
H507        H  0.14116296  0.06254192  0.62964480     0.14600
H508        H  0.19949812  0.09547470  0.59617959     0.14400
C509        C  0.72949524  0.10654970  0.61707550     0.86200
C510        C  0.74823292  0.08521515  0.61535019    -0.54000
C511        C  0.76308598  0.08576904  0.59473446     0.09100
C512        C  0.75785340  0.10824520  0.57768911     0.20100
C513        C  0.74552224  0.13017659  0.61539864    -0.54700
C514        C  0.76027931  0.13130527  0.59471362     0.09200
C515        C  0.71536972  0.10581895  0.59236928    -0.54300
C516        C  0.73005136  0.10656304  0.57178337     0.09800
H517        H  0.74968781  0.07109639  0.62963833     0.14300
H518        H  0.76935626  0.10893984  0.56064424     0.00100
H519        H  0.74589675  0.14465868  0.62933554     0.14600
H520        H  0.69532069  0.10462413  0.59133361     0.14400
C521        C  0.94563549  0.88881482  0.61334517     0.86200
C522        C  0.96776431  0.90655229  0.61146166    -0.54000
C523        C  0.96753638  0.92157385  0.59098335     0.09100
C524        C  0.94460850  0.91773061  0.57424931     0.20100
C525        C  0.92285351  0.90594151  0.61217495    -0.54700
C526        C  0.92210510  0.92093654  0.59167285     0.09200
C527        C  0.94523461  0.87488241  0.58843931    -0.54300
C528        C  0.94486465  0.88979987  0.56798399     0.09800
H529        H  0.98256261  0.90689135  0.62514718     0.14300
H530        H  0.94422913  0.92972748  0.55750169     0.00100
H531        H  0.90844980  0.90666181  0.62610059     0.14600
H532        H  0.94558290  0.85474282  0.58718150     0.14400
C533        C  0.16601581  0.10610482  0.38377162     0.86200
C534        C  0.15017656  0.08250826  0.38465117    -0.54000
C535        C  0.13592486  0.08019551  0.40556997     0.09100
C536        C  0.13853693  0.10242820  0.42369573     0.20100
C537        C  0.14715018  0.12730306  0.38693721    -0.54700
C538        C  0.13283112  0.12571654  0.40789030     0.09200
C539        C  0.18067041  0.10602578  0.40820466    -0.54300
C540        C  0.16650366  0.10393456  0.42908390     0.09800
H541        H  0.15031123  0.06885772  0.36974272     0.14300
H542        H  0.12732218  0.10085230  0.44088180     0.00100
H543        H  0.14442231  0.14195785  0.37356262     0.14600
H544        H  0.20073931  0.10715360  0.40881642     0.14400
C545        C  0.94597567  0.31762247  0.38452766     0.86200
C546        C  0.96946464  0.30164494  0.38633331    -0.54000
C547        C  0.97161172  0.28830345  0.40788749     0.09100
C548        C  0.94942051  0.29189484  0.42563097     0.20100
C549        C  0.92462358  0.29902010  0.38846813    -0.54700
C550        C  0.92642695  0.28562289  0.40991754     0.09200
C551        C  0.94607096  0.33347862  0.40827110    -0.54300
C552        C  0.94776669  0.32017901  0.42975437     0.09800
H553        H  0.98312886  0.30094545  0.37154940     0.14300
H554        H  0.95066256  0.28121292  0.44320774     0.00100
H555        H  0.90950245  0.29589356  0.37563921     0.14600
H556        H  0.94476072  0.35360662  0.40802151     0.14400
C557        C  0.73173720  0.10328775  0.37993182     0.86200
C558        C  0.74821866  0.12642267  0.38208279    -0.54000
C559        C  0.76264981  0.12734810  0.40300590     0.09100
C560        C  0.75956725  0.10430954  0.41978499     0.20100
C561        C  0.75013566  0.08144008  0.38169597    -0.54700
C562        C  0.76473965  0.08176173  0.40263866     0.09200
C563        C  0.71730583  0.10241016  0.40438457    -0.54300
C564        C  0.73166970  0.10301794  0.42519985     0.09800
H565        H  0.74839409  0.14076981  0.36795122     0.14300
H566        H  0.77074816  0.10484221  0.43706168     0.00100
H567        H  0.75224034  0.06739990  0.36743958     0.14600
H568        H  0.69722034  0.10167276  0.40507830     0.14400
C569        C  0.95101536  0.88864906  0.37540397     0.86200
C570        C  0.92746441  0.90483123  0.37700351    -0.54000
C571        C  0.92623771  0.91955321  0.39782953     0.09100
C572        C  0.94895066  0.91694203  0.41502897     0.20100
C573        C  0.97239054  0.90734510  0.37753965    -0.54700
C574        C  0.97165153  0.92201350  0.39837049     0.09200
C575        C  0.95139121  0.87439732  0.40004331    -0.54300
C576        C  0.95032561  0.88906116  0.42073356     0.09800
H577        H  0.91302773  0.90517352  0.36307203     0.14300
H578        H  0.94809212  0.92850233  0.43212229     0.00100
H579        H  0.98693833  0.90864672  0.36368225     0.14600
H580        H  0.95231003  0.85426514  0.40094930     0.14400
C581        C  0.82982843  0.82192936  0.49031244     0.86200
C582        C  0.83193207  0.80313009  0.46863874    -0.54000
C583        C  0.85257464  0.78846990  0.46944234     0.09100
C584        C  0.86959849  0.79425105  0.49166016     0.20100
C585        C  0.83203517  0.80583417  0.51384475    -0.54700
C586        C  0.85276827  0.79122814  0.51453592     0.09200
C587        C  0.85411905  0.83658749  0.48930387    -0.54300
C588        C  0.87490849  0.82225870  0.49024085     0.09800
H589        H  0.81856190  0.80103213  0.45384726     0.14300
H590        H  0.88658481  0.78271871  0.49240414     0.00100
H591        H  0.81792687  0.80545680  0.52821775     0.14600
H592        H  0.85473946  0.85673293  0.48851346     0.14400
C593        C  0.82907386  0.61763282  0.71713395     0.86200
C594        C  0.83325695  0.64099512  0.70108416    -0.54000
C595        C  0.85320286  0.63949050  0.68552375     0.09100
C596        C  0.86737364  0.61478707  0.68735456     0.20100
C597        C  0.82764947  0.59634721  0.69806713    -0.54700
C598        C  0.84758663  0.59475016  0.68243885     0.09200
C599        C  0.85390230  0.61386700  0.73054644    -0.54300
C600        C  0.87398064  0.61253032  0.71512009     0.09800
H601        H  0.82144385  0.65717285  0.70096188     0.14300
H602        H  0.88362234  0.61368559  0.67476882     0.00100
H603        H  0.81205918  0.58365211  0.69703316     0.14600
H604        H  0.85544299  0.61299556  0.75068248     0.14400
C605        C  0.83346007  0.59418543  0.28106416     0.86200
C606        C  0.83527339  0.57130681  0.29816672    -0.54000
C607        C  0.85475922  0.57199839  0.31453519     0.09100
C608        C  0.87101379  0.59542287  0.31191904     0.20100
C609        C  0.83308800  0.61626561  0.29913756    -0.54700
C610        C  0.85254436  0.61697601  0.31537301     0.09200
C611        C  0.85873144  0.59539287  0.26835996    -0.54300
C612        C  0.87842192  0.59605007  0.28421529     0.09800
H613        H  0.82243263  0.55592656  0.29791262     0.14300
H614        H  0.88685380  0.59617874  0.32505997     0.00100
H615        H  0.81825526  0.62987798  0.29945367     0.14600
H616        H  0.86078342  0.59555455  0.24824438     0.14400
C617        C  0.82967010  0.38568007  0.51146679     0.86200
C618        C  0.83261585  0.40372017  0.53365899    -0.54000
C619        C  0.85208802  0.41989705  0.53156325     0.09100
C620        C  0.86730110  0.41612465  0.50753057     0.20100
C621        C  0.82845888  0.40281961  0.48872925    -0.54700
C622        C  0.84802011  0.41880889  0.48653989     0.09200
C623        C  0.85479347  0.37275021  0.50946210    -0.54300
C624        C  0.87452883  0.38843055  0.50733901     0.09800
H625        H  0.82031171  0.40443790  0.54947380     0.14300
H626        H  0.88319773  0.42903327  0.50576345     0.00100
H627        H  0.81323333  0.40232673  0.47553603     0.14600
H628        H  0.85670215  0.35266801  0.50960779     0.14400
O629        O  0.94882734  0.31966080  0.52939858    -0.58100
C630        C  0.94774468  0.33225193  0.45442523     0.74500
O631        O  0.91898474  0.39258505  0.50384601    -0.59200
C632        C  0.95023597  0.33211202  0.54937458     0.74500
C633        C  0.99760340  0.37731174  0.50159364     0.76900
Cd634      Cd  0.94855723  0.35654209  0.50205930     1.37500
O635        O  0.94823224  0.31983232  0.47437206    -0.58100
O636        O  0.99292667  0.35436710  0.50028980    -0.56900
C637        C  0.90003454  0.37872613  0.50505270     0.76900
O638        O  0.97912553  0.39181814  0.50258104    -0.59300
O639        O  0.94724876  0.35567188  0.45663344    -0.57700
O640        O  0.95090264  0.35549322  0.54726861    -0.57700
O641        O  0.90387301  0.35558483  0.50435159    -0.56900
O642        O  0.95214409  0.56883335  0.21521011    -0.58100
C643        C  0.95218729  0.64563822  0.22966286     0.74500
O644        O  0.92296581  0.59669767  0.28840921    -0.59200
C645        C  0.95254828  0.54923783  0.22819147     0.74500
C646        C  0.00031488  0.59756072  0.27582155     0.76900
Cd647      Cd  0.95246690  0.59723645  0.25223640     1.37500
O648        O  0.95274460  0.62625396  0.21624255    -0.58100
O649        O  0.99748787  0.59723978  0.25245456    -0.56900
C650        C  0.90399473  0.59660386  0.27452224     0.76900
O651        O  0.98077262  0.59760556  0.28885276    -0.59300
O652        O  0.95182285  0.64240989  0.25295780    -0.57700
O653        O  0.95314794  0.55215138  0.25155819    -0.57700
O654        O  0.90785074  0.59683518  0.25132265    -0.56900
O655        O  0.94657914  0.89261875  0.52324633    -0.58100
C656        C  0.94988973  0.87855103  0.44600301     0.74500
O657        O  0.97652386  0.82011636  0.49578001    -0.59200
C658        C  0.94541429  0.87927145  0.54259303     0.74500
C659        C  0.89990466  0.83320859  0.49130445     0.76900
Cd660      Cd  0.94776816  0.85623572  0.49429569     1.37500
O661        O  0.94851668  0.89202091  0.46534473    -0.58100
O662        O  0.90291214  0.85649190  0.49095642    -0.56900
C663        C  0.99581722  0.83346506  0.49690891     0.76900
O664        O  0.91927553  0.82005645  0.49299561    -0.59300
O665        O  0.95062828  0.85532740  0.44928669    -0.57700
O666        O  0.94504254  0.85601895  0.53925362    -0.57700
O667        O  0.99261216  0.85672805  0.49689101    -0.56900
O668        O  0.97876596  0.60985827  0.71037324    -0.58100
C669        C  0.89958769  0.61116258  0.72484571     0.74500
O670        O  0.94906968  0.58042986  0.78139840    -0.59200
C671        C  0.99761754  0.61039416  0.72448496     0.74500
C672        C  0.94933101  0.65860870  0.76933184     0.76900
Cd673      Cd  0.94876146  0.61040924  0.74603146     1.37500
O674        O  0.91846988  0.61164966  0.71080942    -0.58100
O675        O  0.94868939  0.65568392  0.74596321    -0.56900
C676        C  0.94939033  0.56142330  0.76739264     0.76900
O677        O  0.94968777  0.63903971  0.78239722    -0.59300
O678        O  0.90366462  0.61000006  0.74799565    -0.57700
O679        O  0.99350893  0.61132795  0.74762648    -0.57700
O680        O  0.94935310  0.56533968  0.74419176    -0.56900
O681        O  0.66109289  0.07545676  0.49782645    -0.58100
C682        C  0.67476878  0.15237082  0.49626122     0.74500
O683        O  0.73299318  0.10455541  0.52716563    -0.59200
C684        C  0.67439964  0.05609024  0.49832708     0.74500
C685        C  0.72070885  0.10312749  0.45029086     0.76900
Cd686      Cd  0.69725810  0.10421231  0.49801437     1.37500
O687        O  0.66142955  0.13308298  0.49787919    -0.58100
O688        O  0.69748643  0.10231917  0.45310488    -0.56900
C689        C  0.71957972  0.10578306  0.54646015     0.76900
O690        O  0.73371241  0.10424450  0.46990327    -0.59300
O691        O  0.69791040  0.14908420  0.49523239    -0.57700
O692        O  0.69758191  0.05931611  0.49871356    -0.57700
O693        O  0.69642499  0.10623685  0.54308041    -0.56900
O694        O  0.66727315  0.59873907  0.02754323    -0.58100
C695        C  0.67903465  0.59810396  0.95127936     0.74500
O696        O  0.73927882  0.62770602  0.99830308    -0.59200
C697        C  0.68029678  0.59776550  0.04712901     0.74500
C698        C  0.72612405  0.55010550  0.99902933     0.76900
Cd699      Cd  0.70328616  0.59854824  0.99905665     1.37500
O700        O  0.66652206  0.59864271  0.97119307    -0.58100
O701        O  0.70293562  0.55322827  0.99940655    -0.56900
C702        C  0.72605171  0.64707088  0.99998512     0.76900
O703        O  0.73929719  0.56958916  0.99880862    -0.59300
O704        O  0.70232891  0.59798382  0.95363882    -0.57700
O705        O  0.70352530  0.59732145  0.04427065    -0.57700
O706        O  0.70291515  0.64377508  0.00109790    -0.56900
O707        O  0.47988930  0.88395239  0.00007558    -0.58100
C708        C  0.40176425  0.86961790  0.99981991     0.74500
O709        O  0.45215468  0.81196980  0.97156542    -0.59200
C710        C  0.49900656  0.87029272  0.00016698     0.74500
C711        C  0.44983589  0.82306814  0.04759844     0.76900
Cd712      Cd  0.45046638  0.84792375  0.00028554     1.37500
O713        O  0.42071094  0.88352548  0.00041562    -0.58100
O714        O  0.45031704  0.84649436  0.04573791    -0.56900
C715        C  0.45032805  0.82495533  0.95204890     0.76900
O716        O  0.44958029  0.81082911  0.02743483    -0.59300
O717        O  0.40564802  0.84647672  0.99987751    -0.57700
O718        O  0.49535939  0.84711704  0.00046056    -0.57700
O719        O  0.44878349  0.84821108  0.95500765    -0.56900
O720        O  0.42165156  0.09932688  0.79041760    -0.58100
C721        C  0.49991223  0.09876312  0.77812885     0.74500
O722        O  0.45121048  0.06895792  0.71832290    -0.59200
C723        C  0.40280210  0.09894339  0.77634467     0.74500
C724        C  0.45339772  0.14544560  0.73131933     0.76900
Cd725      Cd  0.45177036  0.09770331  0.75496561     1.37500
O726        O  0.48076099  0.09717421  0.79167006    -0.58100
O727        O  0.45258037  0.14286572  0.75469238    -0.56900
C728        C  0.45182239  0.04946492  0.73143008     0.76900
O729        O  0.45322888  0.12572095  0.71839428    -0.59300
O730        O  0.49638642  0.09933149  0.75487614    -0.57700
O731        O  0.40689917  0.09799792  0.75320552    -0.57700
O732        O  0.45263013  0.05253368  0.75477977    -0.56900
C733        C  0.85819305  0.55304554  0.33436364    -0.03500
C734        C  0.88190005  0.54624702  0.34268949    -0.06100
C735        C  0.88471616  0.52860139  0.36165398    -0.21200
C736        C  0.86390808  0.51771852  0.37289850     0.24600
C737        C  0.84024201  0.52430579  0.36419571    -0.18700
C738        C  0.83745193  0.54185374  0.34539610    -0.08700
C739        C  0.86723151  0.49904560  0.39306688    -0.19000
C740        C  0.84967309  0.49490301  0.41039971    -0.23800
C741        C  0.85051629  0.47513796  0.42964903     0.26600
C742        C  0.82807652  0.46818032  0.44072715    -0.20500
C743        C  0.82737088  0.44988975  0.45898727    -0.10200
C744        C  0.84917595  0.43812442  0.46686952    -0.10700
C745        C  0.87180235  0.44523758  0.45613690    -0.03600
C746        C  0.87250020  0.46352589  0.43758060    -0.18800
H747        H  0.89825418  0.55431655  0.33436361     0.10300
H748        H  0.90316919  0.52360575  0.36771632     0.10400
H749        H  0.82370459  0.51572728  0.37153259     0.10100
H750        H  0.81888745  0.54684426  0.33973574     0.11200
H751        H  0.88435518  0.48855627  0.39338356     0.11300
H752        H  0.83303644  0.50616992  0.41017461     0.13200
H753        H  0.81088877  0.47691423  0.43516304     0.09700
H754        H  0.80970008  0.44528534  0.46725731     0.11800
H755        H  0.88890012  0.43646883  0.46185999     0.08400
H756        H  0.89023162  0.46869212  0.42986177     0.11100
C757        C  0.85611220  0.44079331  0.54944936    -0.03500
C758        C  0.87999026  0.44970116  0.55483387    -0.06100
C759        C  0.88335528  0.46965327  0.57141021    -0.21200
C760        C  0.86292168  0.48136696  0.58259415     0.24600
C761        C  0.83909168  0.47219063  0.57737886    -0.18700
C762        C  0.83575269  0.45235182  0.56094257    -0.08700
C763        C  0.86681544  0.50234248  0.60042088    -0.19000
C764        C  0.84952388  0.52005842  0.60422516    -0.23800
C765        C  0.85055663  0.53983287  0.62372349     0.26600
C766        C  0.82857890  0.55269871  0.62907540    -0.20500
C767        C  0.82775035  0.57054707  0.64794513    -0.10200
C768        C  0.84899901  0.57628607  0.66184290    -0.10700
C769        C  0.87130360  0.56418544  0.65602762    -0.03600
C770        C  0.87209562  0.54598961  0.63724030    -0.18800
H771        H  0.89608194  0.44106064  0.54651873     0.10300
H772        H  0.90194458  0.47607569  0.57537335     0.10400
H773        H  0.82288259  0.47999058  0.58623799     0.10100
H774        H  0.81704264  0.44632831  0.55701234     0.11200
H775        H  0.88410040  0.50279050  0.61065426     0.11300
H776        H  0.83285462  0.51959829  0.59295195     0.13200
H777        H  0.81174651  0.54859878  0.61889130     0.09700
H778        H  0.81041421  0.57994413  0.65162721     0.11800
H779        H  0.88798222  0.56835973  0.66641570     0.08400
H780        H  0.88954401  0.53693843  0.63347121     0.11100
C781        C  0.85751168  0.77263155  0.53430477    -0.03500
C782        C  0.86783919  0.74951060  0.52808520    -0.06100
C783        C  0.87102252  0.73126664  0.54620615    -0.21200
C784        C  0.86423282  0.73576511  0.57100247     0.24600
C785        C  0.85424592  0.75909806  0.57736319    -0.18700
C786        C  0.85092233  0.77732847  0.55916150    -0.08700
C787        C  0.86589788  0.71498876  0.58906342    -0.19000
C788        C  0.86732863  0.71821047  0.61390314    -0.23800
C789        C  0.86615444  0.69751960  0.63221176     0.26600
C790        C  0.86047673  0.70331821  0.65705051    -0.20500
C791        C  0.85701108  0.68453108  0.67456180    -0.10200
C792        C  0.85940540  0.65947554  0.66766894    -0.10700
C793        C  0.86635665  0.65360215  0.64321562    -0.03600
C794        C  0.86972534  0.67239690  0.62562477    -0.18800
H795        H  0.87264357  0.74511834  0.50901721     0.10300
H796        H  0.87845798  0.71338212  0.54074221     0.10400
H797        H  0.84811684  0.76309505  0.59610195     0.10100
H798        H  0.84298472  0.79502020  0.56449135     0.11200
H799        H  0.86535618  0.69642450  0.58126592     0.11300
H800        H  0.86819944  0.73693170  0.62138434     0.13200
H801        H  0.85795094  0.72245328  0.66278612     0.09700
H802        H  0.85209832  0.68958791  0.69344436     0.11800
H803        H  0.86833715  0.63442112  0.63743746     0.08400
H804        H  0.87493886  0.66697352  0.60698811     0.11100
C805        C  0.85349587  0.63502146  0.33624092    -0.03500
C806        C  0.83200666  0.63976109  0.35009884    -0.06100
C807        C  0.83223935  0.65703804  0.36945945    -0.21200
C808        C  0.85383203  0.67031506  0.37528098     0.24600
C809        C  0.87559672  0.66526281  0.36169991    -0.18700
C810        C  0.87542482  0.64757718  0.34243050    -0.08700
C811        C  0.85233594  0.68910052  0.39559625    -0.19000
C812        C  0.86829437  0.70808910  0.39884609    -0.23800
C813        C  0.86409146  0.72806666  0.41762607     0.26600
C814        C  0.88433154  0.74151950  0.42705661    -0.20500
C815        C  0.88073507  0.76099015  0.44407335    -0.10200
C816        C  0.85675602  0.76762916  0.45167110    -0.10700
C817        C  0.83654058  0.75412574  0.44223810    -0.03600
C818        C  0.84010972  0.73475602  0.42532778    -0.18800
H819        H  0.81496659  0.62995847  0.34601486     0.10300
H820        H  0.81528108  0.66033521  0.37969819     0.10400
H821        H  0.89277487  0.67464840  0.36595887     0.10100
H822        H  0.89225210  0.64404337  0.33207050     0.11200
H823        H  0.83645175  0.68769544  0.40785494     0.11300
H824        H  0.88466783  0.70950066  0.38728485     0.13200
H825        H  0.90296917  0.73695870  0.42121425     0.09700
H826        H  0.89666929  0.77116745  0.45083688     0.11800
H827        H  0.81782918  0.75842295  0.44799048     0.08400
H828        H  0.82390806  0.72552325  0.41794728     0.11100
C829        C  0.78393275  0.06239389  0.40784098    -0.03500
C830        C  0.80509860  0.06805796  0.42199860    -0.06100
C831        C  0.82383609  0.05047329  0.42541780    -0.21200
C832        C  0.82183411  0.02660157  0.41508564     0.24600
C833        C  0.80034073  0.02058544  0.40152414    -0.18700
C834        C  0.78162311  0.03820235  0.39808504    -0.08700
C835        C  0.84337504  0.00941917  0.41700189    -0.19000
C836        C  0.84184251  0.98462388  0.41359529    -0.23800
C837        C  0.86369554  0.96778913  0.41170591     0.26600
C838        C  0.86038369  0.94431219  0.40074635    -0.20500
C839        C  0.88054362  0.92856842  0.39657415    -0.10200
C840        C  0.90459018  0.93581538  0.40346557    -0.10700
C841        C  0.90774508  0.95874006  0.41558682    -0.03600
C842        C  0.88760823  0.97458716  0.41966004    -0.18800
H843        H  0.80775633  0.08625467  0.42988127     0.10300
H844        H  0.84021143  0.05571555  0.43583124     0.10400
H845        H  0.79815027  0.00264389  0.39272553     0.10100
H846        H  0.76540626  0.03278980  0.38756857     0.11200
H847        H  0.86120891  0.01797164  0.42041758     0.11300
H848        H  0.82383263  0.97624161  0.41058756     0.13200
H849        H  0.84217122  0.93834812  0.39476462     0.09700
H850        H  0.87726094  0.91070940  0.38787431     0.11800
H851        H  0.92583033  0.96483318  0.42142326     0.08400
H852        H  0.89104757  0.99206490  0.42895886     0.11100
C853        C  0.77932476  0.14875854  0.40865607    -0.03500
C854        C  0.77370180  0.17266454  0.39984505    -0.06100
C855        C  0.79012535  0.19236879  0.40349920    -0.21200
C856        C  0.81259814  0.18886148  0.41613501     0.24600
C857        C  0.81771980  0.16521259  0.42601806    -0.18700
C858        C  0.80124776  0.14547998  0.42230465    -0.08700
C859        C  0.83017643  0.21019949  0.41749582    -0.19000
C860        C  0.85334954  0.20909651  0.42683607    -0.23800
C861        C  0.87154225  0.22980391  0.42481971     0.26600
C862        C  0.89687348  0.22428869  0.42693016    -0.20500
C863        C  0.91475120  0.24264197  0.42300573    -0.10200
C864        C  0.90765777  0.26687234  0.41688990    -0.10700
C865        C  0.88239428  0.27277228  0.41587626    -0.03600
C866        C  0.86448224  0.25452945  0.42006033    -0.18800
H867        H  0.75661140  0.17625333  0.38999231     0.10300
H868        H  0.78539389  0.21039096  0.39597380     0.10400
H869        H  0.83445178  0.16149326  0.43632471     0.10100
H870        H  0.80618229  0.12756517  0.42960638     0.11200
H871        H  0.82403265  0.22720965  0.40873653     0.11300
H872        H  0.86020102  0.19189814  0.43458592     0.13200
H873        H  0.90289469  0.20550120  0.43075896     0.09700
H874        H  0.93406144  0.23757340  0.42356288     0.11800
H875        H  0.87652901  0.29150640  0.41157216     0.08400
H876        H  0.84525664  0.25997748  0.41932140     0.11100
C877        C  0.99341339  0.27212257  0.41320061    -0.03500
C878        C  0.01685941  0.27816236  0.40361138    -0.06100
C879        C  0.03695202  0.26217300  0.40682491    -0.21200
C880        C  0.03416126  0.23959575  0.41946121     0.24600
C881        C  0.01105439  0.23404122  0.43016210    -0.18700
C882        C  0.99097952  0.25025538  0.42721010    -0.08700
C883        C  0.05580802  0.22253136  0.42074519    -0.19000
C884        C  0.05396889  0.19768150  0.42345571    -0.23800
C885        C  0.07540351  0.18029552  0.42133395     0.26600
C886        C  0.07291782  0.15590337  0.43020631    -0.20500
C887        C  0.09181725  0.13839982  0.42671087    -0.10200
C888        C  0.11358856  0.14477394  0.41396749    -0.10700
C889        C  0.11638726  0.16944650  0.40584801    -0.03600
C890        C  0.09753956  0.18687850  0.40924136    -0.18800
H891        H  0.01974190  0.29525725  0.39348882     0.10300
H892        H  0.05464052  0.26719031  0.39880019     0.10400
H893        H  0.00836922  0.21729757  0.44087568     0.10100
H894        H  0.97349144  0.24526681  0.43546142     0.11200
H895        H  0.07381810  0.23088225  0.41785399     0.11300
H896        H  0.03592037  0.18940292  0.42647344     0.13200
H897        H  0.05606957  0.15022055  0.43950141     0.09700
H898        H  0.08889497  0.11972208  0.43325968     0.11800
H899        H  0.13311169  0.17537752  0.39653651     0.08400
H900        H  0.10028128  0.20517887  0.40156222     0.11100
C901        C  0.99136847  0.94038194  0.40450802    -0.03500
C902        C  0.98560425  0.96243154  0.41719024    -0.06100
C903        C  0.00379816  0.98027211  0.42182971    -0.21200
C904        C  0.02833228  0.97644571  0.41420531     0.24600
C905        C  0.03436189  0.95398557  0.40213987    -0.18700
C906        C  0.01607870  0.93617630  0.39741685    -0.08700
C907        C  0.04628076  0.99718234  0.41749811    -0.19000
C908        C  0.07099933  0.99496927  0.41497703    -0.23800
C909        C  0.08810470  0.01663630  0.41494014     0.26600
C910        C  0.11087208  0.01429226  0.40266540    -0.20500
C911        C  0.12663758  0.03469088  0.40023286    -0.10200
C912        C  0.12004250  0.05801719  0.41008716    -0.10700
C913        C  0.09793210  0.05999218  0.42365436    -0.03600
C914        C  0.08213221  0.03955791  0.42611411    -0.18800
H915        H  0.96693263  0.96637004  0.42296631     0.10300
H916        H  0.99855269  0.99738665  0.43107488     0.10400
H917        H  0.05286453  0.95025709  0.39552539     0.10100
H918        H  0.02133320  0.91914512  0.38806862     0.11200
H919        H  0.03837297  0.01533957  0.42110690     0.11300
H920        H  0.07907339  0.97694211  0.41116015     0.13200
H921        H  0.11620351  0.99676165  0.39430232     0.09700
H922        H  0.14395175  0.03213891  0.39044822     0.11800
H923        H  0.09236959  0.07743703  0.43181790     0.08400
H924        H  0.06527508  0.04194336  0.43667022     0.11100
C925        C  0.78243054  0.06658378  0.58979824    -0.03500
C926        C  0.80401962  0.07259570  0.57658750    -0.06100
C927        C  0.82293046  0.05517266  0.57348591    -0.21200
C928        C  0.82058769  0.03112740  0.58308816     0.24600
C929        C  0.79874962  0.02478321  0.59582266    -0.18700
C930        C  0.77988104  0.04227180  0.59902252    -0.08700
C931        C  0.84191845  0.01383788  0.58090308    -0.19000
C932        C  0.83965076  0.98893991  0.58159309    -0.23800
C933        C  0.86102946  0.97151778  0.58195579     0.26600
C934        C  0.85709634  0.94740050  0.59088172    -0.20500
C935        C  0.87679580  0.93084091  0.59338593    -0.10200
C936        C  0.90096455  0.93793606  0.58685060    -0.10700
C937        C  0.90475306  0.96155102  0.57660428    -0.03600
C938        C  0.88502730  0.97823949  0.57420212    -0.18800
H939        H  0.80680801  0.09090898  0.56918950     0.10300
H940        H  0.83960653  0.06059496  0.56372324     0.10400
H941        H  0.79639946  0.00663955  0.60404248     0.10100
H942        H  0.76334796  0.03667431  0.60886747     0.11200
H943        H  0.86005907  0.02222046  0.57905669     0.11300
H944        H  0.82134361  0.98080820  0.58315574     0.13200
H945        H  0.83878590  0.94152802  0.59658387     0.09700
H946        H  0.87310459  0.91248917  0.60066221     0.11800
H947        H  0.92304306  0.96744820  0.57112083     0.08400
H948        H  0.88879626  0.99628268  0.56633433     0.11100
C949        C  0.98841453  0.93859893  0.58513089    -0.03500
C950        C  0.01284594  0.93128590  0.59024611    -0.06100
C951        C  0.03256076  0.94748916  0.58614921    -0.21200
C952        C  0.02839450  0.97154464  0.57718792     0.24600
C953        C  0.00404515  0.97867207  0.57117044    -0.18700
C954        C  0.98426394  0.96223461  0.57497234    -0.08700
C955        C  0.05001091  0.98848014  0.57500686    -0.19000
C956        C  0.04854428  0.01335897  0.57743149    -0.23800
C957        C  0.07064662  0.02978848  0.57992191     0.26600
C958        C  0.06790378  0.05542225  0.57605734    -0.20500
C959        C  0.08764712  0.07172927  0.58039646    -0.10200
C960        C  0.11048411  0.06279738  0.58900104    -0.10700
C961        C  0.11340179  0.03716049  0.59253502    -0.03600
C962        C  0.09376511  0.02083446  0.58810132    -0.18800
H963        H  0.01676261  0.91295788  0.59747043     0.10300
H964        H  0.05113736  0.94140079  0.59064801     0.10400
H965        H  0.00020042  0.99682798  0.56354709     0.10100
H966        H  0.96572622  0.96830385  0.57061230     0.11200
H967        H  0.06800099  0.97973197  0.57333489     0.11300
H968        H  0.03051041  0.02210058  0.57890869     0.13200
H969        H  0.05027350  0.06291729  0.57010855     0.09700
H970        H  0.08468652  0.09138546  0.57798908     0.11800
H971        H  0.13083752  0.02974463  0.59911910     0.08400
H972        H  0.09666236  0.00141400  0.59213295     0.11100
C973        C  0.99243414  0.26810595  0.58848783    -0.03500
C974        C  0.98605146  0.24480651  0.57869588    -0.06100
C975        C  0.00414315  0.22665135  0.57476276    -0.21200
C976        C  0.02906516  0.23133544  0.58056719     0.24600
C977        C  0.03561900  0.25517024  0.58927806    -0.18700
C978        C  0.01745688  0.27323631  0.59336854    -0.08700
C979        C  0.04728068  0.21067421  0.57783900    -0.19000
C980        C  0.06954995  0.21036048  0.58925023    -0.23800
C981        C  0.08694555  0.18881619  0.58933626     0.26600
C982        C  0.10774989  0.19010052  0.60492695    -0.20500
C983        C  0.12385759  0.16995696  0.60722517    -0.10200
C984        C  0.11956549  0.14767354  0.59412615    -0.10700
C985        C  0.09943430  0.14687387  0.57748528    -0.03600
C986        C  0.08332219  0.16710482  0.57510877    -0.18800
H987        H  0.96698742  0.24017780  0.57505531     0.10300
H988        H  0.99850229  0.20859204  0.56786059     0.10400
H989        H  0.05463684  0.26010737  0.59303540     0.10100
H990        H  0.02298408  0.29126797  0.60042034     0.11200
H991        H  0.04111524  0.19453767  0.56748647     0.11300
H992        H  0.07492553  0.22610220  0.60063826     0.13200
H993        H  0.11140557  0.20669417  0.61577949     0.09700
H994        H  0.13964281  0.17203873  0.61941945     0.11800
H995        H  0.09554531  0.13053808  0.56653610     0.08400
H996        H  0.06805662  0.16531589  0.56225967     0.11100
C997        C  0.90716401  0.26960596  0.58908830    -0.03500
C998        C  0.91096681  0.24968565  0.57250519    -0.06100
C999        C  0.89271818  0.23165020  0.56883521    -0.21200
C1000       C  0.86993318  0.23326254  0.58115603     0.24600
C1001       C  0.86555204  0.25372045  0.59688955    -0.18700
C1002       C  0.88386303  0.27170437  0.60066223    -0.08700
C1003       C  0.85213959  0.21232182  0.57869641    -0.19000
C1004       C  0.82768049  0.21449696  0.58309743    -0.23800
C1005       C  0.81017522  0.19313402  0.58382546     0.26600
C1006       C  0.78720931  0.19657400  0.59548826    -0.20500
C1007       C  0.77079433  0.17675638  0.59838325    -0.10200
C1008       C  0.77691128  0.15286505  0.58967141    -0.10700
C1009       C  0.79931013  0.14973340  0.57679871    -0.03600
C1010       C  0.81578099  0.16956542  0.57389317    -0.18800
H1011       H  0.92818781  0.24733740  0.56273989     0.10300
H1012       H  0.89658849  0.21611549  0.55657854     0.10400
H1013       H  0.84842680  0.25552155  0.60712444     0.10100
H1014       H  0.87967724  0.28708014  0.61293826     0.11200
H1015       H  0.85991544  0.19444377  0.57373585     0.11300
H1016       H  0.82014163  0.23262333  0.58762484     0.13200
H1017       H  0.78213634  0.21458675  0.60292826     0.09700
H1018       H  0.75332418  0.18023534  0.60758480     0.11800
H1019       H  0.80456463  0.13189979  0.56944925     0.08400
H1020       H  0.83280090  0.16614403  0.56392641     0.11100
C1021       C  0.94662954  0.46867015  0.75705459    -0.03500
C1022       C  0.92561317  0.46713794  0.74159487    -0.06100
C1023       C  0.92287169  0.44778882  0.72437931    -0.21200
C1024       C  0.94096318  0.42924859  0.72216189     0.24600
C1025       C  0.96206908  0.43069624  0.73741519    -0.18700
C1026       C  0.96484731  0.45004069  0.75462078    -0.08700
C1027       C  0.93793558  0.40972345  0.70268290    -0.19000
C1028       C  0.94969882  0.38762169  0.70318384    -0.23800
C1029       C  0.94866041  0.36898197  0.68264029     0.26600
C1030       C  0.96742761  0.35104072  0.68117624    -0.20500
C1031       C  0.96830661  0.33409611  0.66140886    -0.10200
C1032       C  0.95021208  0.33452757  0.64250454    -0.10700
C1033       C  0.93066347  0.35170354  0.64481505    -0.03600
C1034       C  0.92987795  0.36872301  0.66451119    -0.18800
H1035       H  0.91128529  0.48115527  0.74276088     0.10300
H1036       H  0.90654985  0.44735795  0.71266942     0.10400
H1037       H  0.97694450  0.41738410  0.73570798     0.10100
H1038       H  0.98161581  0.45012555  0.76542349     0.11200
H1039       H  0.92584387  0.41417666  0.68723013     0.11300
H1040       H  0.96157035  0.38321811  0.71883791     0.13200
H1041       H  0.98192721  0.35052052  0.69510271     0.09700
H1042       H  0.98348165  0.32115146  0.66119769     0.11800
H1043       H  0.91615494  0.35228972  0.63090572     0.08400
H1044       H  0.91449843  0.38151600  0.66533992     0.11100
C1045       C  0.90876529  0.51605676  0.82895911    -0.03500
C1046       C  0.91621151  0.52497792  0.85236816    -0.06100
C1047       C  0.89921913  0.52680064  0.87190986    -0.21200
C1048       C  0.87434255  0.52006334  0.86845983     0.24600
C1049       C  0.86678913  0.51146818  0.84485569    -0.18700
C1050       C  0.88383158  0.50952345  0.82534921    -0.08700
C1051       C  0.85744381  0.52062879  0.89034677    -0.19000
C1052       C  0.83254752  0.52121123  0.88865092    -0.23800
C1053       C  0.81575943  0.51923110  0.91053264     0.26600
C1054       C  0.79159348  0.51050401  0.90667984    -0.20500
C1055       C  0.77576050  0.50640899  0.92678974    -0.10200
C1056       C  0.78365803  0.51110908  0.95130241    -0.10700
C1057       C  0.80727195  0.52127029  0.95507999    -0.03600
C1058       C  0.82320775  0.52529143  0.93494574    -0.18800
H1059       H  0.93537318  0.52971416  0.85588698     0.10300
H1060       H  0.90562167  0.53320512  0.88993166     0.10400
H1061       H  0.84801131  0.50541355  0.84147929     0.10100
H1062       H  0.87752962  0.50265574  0.80747422     0.11200
H1063       H  0.86612408  0.52000255  0.90853166     0.11300
H1064       H  0.82388388  0.52186886  0.87045660     0.13200
H1065       H  0.78516330  0.50611115  0.88807763     0.09700
H1066       H  0.75738738  0.49923664  0.92314279     0.11800
H1067       H  0.81383877  0.52528308  0.97360776     0.08400
H1068       H  0.84131450  0.53298398  0.93869618     0.11100
C1069       C  0.94540407  0.33377773  0.36117600     0.08500
C1070       C  0.92520493  0.33436429  0.34457450    -0.06100
C1071       C  0.92504069  0.35065714  0.32438349    -0.21200
C1072       C  0.94494727  0.36678673  0.32001636     0.24600
C1073       C  0.96530210  0.36610419  0.33634457    -0.18700
C1074       C  0.96544877  0.34986385  0.35659830    -0.08700
C1075       C  0.94274518  0.38501380  0.29931714    -0.19000
C1076       C  0.96175783  0.39831576  0.29000993    -0.23800
C1077       C  0.95883646  0.41777786  0.27054206     0.26600
C1078       C  0.97758650  0.43556585  0.26779819    -0.20500
C1079       C  0.97530194  0.45468093  0.25041357    -0.10200
C1080       C  0.95423442  0.45657864  0.23507021    -0.10700
C1081       C  0.93572721  0.43826199  0.23742403    -0.03600
C1082       C  0.93805918  0.41910955  0.25479471    -0.18800
H1083       H  0.90904003  0.32296759  0.34711852     0.10300
H1084       H  0.90899963  0.35091293  0.31227589     0.10400
H1085       H  0.98081510  0.37857182  0.33424606     0.10100
H1086       H  0.98114974  0.35020164  0.36914078     0.11200
H1087       H  0.92428558  0.38783517  0.29196996     0.11300
H1088       H  0.98022757  0.39564327  0.29739293     0.13200
H1089       H  0.99391941  0.43495607  0.27948091     0.09700
H1090       H  0.98995430  0.46834967  0.24915600     0.11800
H1091       H  0.91918479  0.43836509  0.22625935     0.08400
H1092       H  0.92352010  0.40535975  0.25553637     0.11100
C1093       C  0.90714650  0.50641736  0.16879838    -0.03500
C1094       C  0.88320529  0.49815901  0.17493820    -0.06100
C1095       C  0.86362427  0.50063711  0.15814963    -0.21200
C1096       C  0.86731421  0.51138254  0.13470731     0.24600
C1097       C  0.89091045  0.52101253  0.12904663    -0.18700
C1098       C  0.91055949  0.51859557  0.14596997    -0.08700
C1099       C  0.84609871  0.51159414  0.11688975    -0.19000
C1100       C  0.84843058  0.51421613  0.09204198    -0.23800
C1101       C  0.82735311  0.51176855  0.07424597     0.26600
C1102       C  0.82922932  0.52301079  0.05082580    -0.20500
C1103       C  0.81054251  0.52006656  0.03301102    -0.10200
C1104       C  0.78959463  0.50536802  0.03789764    -0.10700
C1105       C  0.78760676  0.49428487  0.06153128    -0.03600
C1106       C  0.80623872  0.49736545  0.07943714    -0.18800
H1107       H  0.87953130  0.48953947  0.19271950     0.10300
H1108       H  0.84559743  0.49350721  0.16330106     0.10400
H1109       H  0.89442693  0.53029484  0.11160633     0.10100
H1110       H  0.92853351  0.52560707  0.14076226     0.11200
H1111       H  0.82787203  0.50819599  0.12462592     0.11300
H1112       H  0.86646816  0.51796619  0.08407905     0.13200
H1113       H  0.84533418  0.53405945  0.04621672     0.09700
H1114       H  0.81298546  0.52894796  0.01526072     0.11800
H1115       H  0.77163872  0.48317934  0.06633290     0.08400
H1116       H  0.80427007  0.48784015  0.09700455     0.11100
C1117       C  0.99429011  0.50631995  0.16665085    -0.03500
C1118       C  0.01892721  0.50160901  0.17351148    -0.06100
C1119       C  0.03818288  0.50496106  0.15652384    -0.21200
C1120       C  0.03336665  0.51278349  0.13210386     0.24600
C1121       C  0.00872455  0.51823154  0.12538913    -0.18700
C1122       C  0.98942385  0.51510779  0.14257627    -0.08700
C1123       C  0.05467036  0.51460334  0.11452973    -0.19000
C1124       C  0.05257604  0.51434698  0.08949592    -0.23800
C1125       C  0.07414924  0.51300305  0.07215480     0.26600
C1126       C  0.07055635  0.51904477  0.04699275    -0.20500
C1127       C  0.08965688  0.51607426  0.02963341    -0.10200
C1128       C  0.11279336  0.50673320  0.03698661    -0.10700
C1129       C  0.11660769  0.50109647  0.06220609    -0.03600
C1130       C  0.09755358  0.50413118  0.07958602    -0.18800
H1131       H  0.02332629  0.49523193  0.19208701     0.10300
H1132       H  0.05693224  0.50087103  0.16236930     0.10400
H1133       H  0.00417962  0.52494943  0.10701886     0.10100
H1134       H  0.97066501  0.51891188  0.13679111     0.11200
H1135       H  0.07294798  0.51492268  0.12284886     0.11300
H1136       H  0.03434185  0.51432511  0.08106885     0.13200
H1137       H  0.05272287  0.52567651  0.04063498     0.09700
H1138       H  0.08596238  0.52021905  0.01028623     0.11800
H1139       H  0.13428577  0.49402625  0.06849144     0.08400
H1140       H  0.10113259  0.49859256  0.09855278     0.11100
C1141       C  0.99167338  0.51442197  0.82765030    -0.03500
C1142       C  0.00051517  0.53795516  0.83471118    -0.06100
C1143       C  0.01902465  0.54022753  0.85292857    -0.21200
C1144       C  0.02871523  0.51907282  0.86468068     0.24600
C1145       C  0.01991987  0.49555950  0.85736073    -0.18700
C1146       C  0.00152609  0.49331785  0.83931674    -0.08700
C1147       C  0.04855326  0.52176557  0.88379676    -0.19000
C1148       C  0.05216412  0.50463057  0.90166758    -0.23800
C1149       C  0.07314350  0.50450232  0.91954224     0.26600
C1150       C  0.07961336  0.48170146  0.93024396    -0.20500
C1151       C  0.09897504  0.48012904  0.94728115    -0.10200
C1152       C  0.11225821  0.50142048  0.95433742    -0.10700
C1153       C  0.10565464  0.52442606  0.94401658    -0.03600
C1154       C  0.08633480  0.52597448  0.92659174    -0.18800
H1155       H  0.99346293  0.55454096  0.82586706     0.10300
H1156       H  0.02570176  0.55853711  0.85794926     0.10400
H1157       H  0.02746106  0.47868119  0.86511952     0.10100
H1158       H  0.99493086  0.47490678  0.83462704     0.11200
H1159       H  0.06048896  0.53792965  0.88277402     0.11300
H1160       H  0.03959953  0.48896035  0.90280495     0.13200
H1161       H  0.06966452  0.46491495  0.92532098     0.09700
H1162       H  0.10321786  0.46222354  0.95533072     0.11800
H1163       H  0.11555858  0.54113001  0.94924533     0.08400
H1164       H  0.08154405  0.54396151  0.91911889     0.11100
C1165       C  0.94790303  0.87083299  0.63518807    -0.03500
C1166       C  0.96865426  0.85503660  0.63608938    -0.06100
C1167       C  0.97102480  0.83710120  0.65463384    -0.21200
C1168       C  0.95288872  0.83453605  0.67307355     0.24600
C1169       C  0.93223019  0.85043470  0.67253151    -0.18700
C1170       C  0.92979920  0.86837666  0.65391024    -0.08700
C1171       C  0.95562850  0.81419367  0.69155634    -0.19000
C1172       C  0.94365182  0.81353309  0.71354195    -0.23800
C1173       C  0.94532636  0.79239150  0.73122361     0.26600
C1174       C  0.92604347  0.78890111  0.74828489    -0.20500
C1175       C  0.92625750  0.76888134  0.76477061    -0.10200
C1176       C  0.94603354  0.75178489  0.76480852    -0.10700
C1177       C  0.96566810  0.75577833  0.74804346    -0.03600
C1178       C  0.96542786  0.77581699  0.73157026    -0.18800
H1179       H  0.98292182  0.85629685  0.62199745     0.10300
H1180       H  0.98706097  0.82503103  0.65444929     0.10400
H1181       H  0.91741242  0.84867147  0.68590406     0.10100
H1182       H  0.91335845  0.87965791  0.65428661     0.11200
H1183       H  0.96789642  0.79907205  0.68648733     0.11300
H1184       H  0.93134559  0.82860785  0.71863836     0.13200
H1185       H  0.91041276  0.80149910  0.74854755     0.09700
H1186       H  0.91056486  0.76705666  0.77694547     0.11800
H1187       H  0.98126963  0.74315715  0.74762473     0.08400
H1188       H  0.98112101  0.77825047  0.71935645     0.11100
C1189       C  0.78273052  0.69066664  0.95402892    -0.03500
C1190       C  0.77512699  0.69831880  0.93021689    -0.06100
C1191       C  0.79085830  0.69582666  0.90976178    -0.21200
C1192       C  0.81460871  0.68573439  0.91255801     0.24600
C1193       C  0.82175097  0.67682891  0.93611414    -0.18700
C1194       C  0.80593779  0.67929376  0.95658839    -0.08700
C1195       C  0.83134218  0.68541248  0.89057717    -0.19000
C1196       C  0.85620966  0.68471209  0.89237171    -0.23800
C1197       C  0.87331901  0.68752365  0.87088068     0.26600
C1198       C  0.89811314  0.68041325  0.87390345    -0.20500
C1199       C  0.91553239  0.68496909  0.85526697    -0.10200
C1200       C  0.90868713  0.69710919  0.83327058    -0.10700
C1201       C  0.88365103  0.70342052  0.82980282    -0.03600
C1202       C  0.86617207  0.69880007  0.84839594    -0.18800
H1203       H  0.75703267  0.70645414  0.92737476     0.10300
H1204       H  0.78466672  0.70243628  0.89178294     0.10400
H1205       H  0.83948712  0.66801062  0.93894868     0.10100
H1206       H  0.81227340  0.67293753  0.97449367     0.11200
H1207       H  0.82273101  0.68726414  0.87245080     0.11300
H1208       H  0.86478075  0.68288491  0.91052062     0.13200
H1209       H  0.90416881  0.67174645  0.89102094     0.09700
H1210       H  0.93449499  0.67976877  0.85861398     0.11800
H1211       H  0.87755411  0.71228556  0.81282648     0.08400
H1212       H  0.84741216  0.70501707  0.84531901     0.11100
C1213       C  0.99515062  0.70251904  0.82752524    -0.03500
C1214       C  0.01842185  0.71197262  0.82062332    -0.06100
C1215       C  0.03887996  0.70942470  0.83631670    -0.21200
C1216       C  0.03674394  0.69714101  0.85917592     0.24600
C1217       C  0.01365179  0.68702481  0.86582736    -0.18700
C1218       C  0.99317588  0.68956412  0.85006356    -0.08700
C1219       C  0.05840239  0.69714046  0.87628845    -0.19000
C1220       C  0.06143137  0.68078579  0.89497037    -0.23800
C1221       C  0.08136004  0.68277638  0.91404615     0.26600
C1222       C  0.07796962  0.67068189  0.93684396    -0.20500
C1223       C  0.09502141  0.67360217  0.95618244    -0.10200
C1224       C  0.11601497  0.68873677  0.95330021    -0.10700
C1225       C  0.12017123  0.69967453  0.92989371    -0.03600
C1226       C  0.10310122  0.69673544  0.91049875    -0.18800
H1227       H  0.02086281  0.72152406  0.80310992     0.10300
H1228       H  0.05641578  0.71738773  0.83070100     0.10400
H1229       H  0.01096553  0.67799774  0.88355606     0.10100
H1230       H  0.97566055  0.68211956  0.85605472     0.11200
H1231       H  0.07186990  0.71180282  0.87360003     0.11300
H1232       H  0.04795809  0.66605583  0.89739656     0.13200
H1233       H  0.06161016  0.65949285  0.94002004     0.09700
H1234       H  0.09112154  0.66448379  0.97350572     0.11800
H1235       H  0.13662817  0.71055774  0.92641754     0.08400
H1236       H  0.10712995  0.70544985  0.89287850     0.11100
C1237       C  0.95388923  0.87088179  0.35331093    -0.03500
C1238       C  0.97584479  0.85687272  0.35143158    -0.06100
C1239       C  0.97881200  0.83892167  0.33285030    -0.21200
C1240       C  0.95976475  0.83408944  0.31582240     0.24600
C1241       C  0.93807459  0.84846585  0.31702190    -0.18700
C1242       C  0.93514561  0.86662228  0.33551296    -0.08700
C1243       C  0.96319000  0.81397013  0.29711969    -0.19000
C1244       C  0.94422583  0.80060485  0.28778669    -0.23800
C1245       C  0.94747422  0.77939966  0.27026833     0.26600
C1246       C  0.92904223  0.76112437  0.26912458    -0.20500
C1247       C  0.93122253  0.74100057  0.25280398    -0.10200
C1248       C  0.95178121  0.73863514  0.23685861    -0.10700
C1249       C  0.97018998  0.75720485  0.23791177    -0.03600
C1250       C  0.96802214  0.77731365  0.25435690    -0.18800
H1251       H  0.99063837  0.85953393  0.36479166     0.10300
H1252       H  0.99581281  0.82828275  0.33221684     0.10400
H1253       H  0.92329548  0.84575969  0.30368732     0.10100
H1254       H  0.91788610  0.87661679  0.33584586     0.11200
H1255       H  0.98204923  0.80882508  0.29246978     0.11300
H1256       H  0.92560027  0.80425168  0.29442989     0.13200
H1257       H  0.91292837  0.76231607  0.28105043     0.09700
H1258       H  0.91668692  0.72714560  0.25255039     0.11800
H1259       H  0.98635355  0.75670278  0.22622127     0.08400
H1260       H  0.98229534  0.79139622  0.25417637     0.11100
C1261       C  0.99560742  0.68661884  0.16977298    -0.03500
C1262       C  0.02011927  0.69258299  0.17621599    -0.06100
C1263       C  0.03944878  0.68836480  0.15951664    -0.21200
C1264       C  0.03481848  0.67828135  0.13586920     0.24600
C1265       C  0.01046827  0.67111181  0.12982160    -0.18700
C1266       C  0.99110606  0.67517860  0.14668545    -0.08700
C1267       C  0.05587138  0.67637927  0.11812354    -0.19000
C1268       C  0.05324231  0.67566185  0.09318032    -0.23800
C1269       C  0.07437736  0.67795346  0.07556157     0.26600
C1270       C  0.07141532  0.66963293  0.05096917    -0.20500
C1271       C  0.08999201  0.67349415  0.03326203    -0.10200
C1272       C  0.11187432  0.68610551  0.03961194    -0.10700
C1273       C  0.11509126  0.69387491  0.06443611    -0.03600
C1274       C  0.09656501  0.69001211  0.08214212    -0.18800
H1275       H  0.02440733  0.70066974  0.19418083     0.10300
H1276       H  0.05805026  0.69368640  0.16486586     0.10400
H1277       H  0.00619380  0.66246801  0.11215063     0.10100
H1278       H  0.97257884  0.66999878  0.14128496     0.11200
H1279       H  0.07431272  0.67733961  0.12605522     0.11300
H1280       H  0.03490909  0.67436277  0.08506372     0.13200
H1281       H  0.05445480  0.66047295  0.04531379     0.09700
H1282       H  0.08670057  0.66733248  0.01448396     0.11800
H1283       H  0.13187678  0.70321353  0.07024402     0.08400
H1284       H  0.09946617  0.69734151  0.10066477     0.11100
C1285       C  0.90850465  0.68923855  0.16997237    -0.03500
C1286       C  0.88437197  0.69640695  0.17657296    -0.06100
C1287       C  0.86481171  0.69365742  0.15979766    -0.21200
C1288       C  0.86881047  0.68386504  0.13590230     0.24600
C1289       C  0.89280032  0.67576060  0.12957873    -0.18700
C1290       C  0.91238464  0.67836073  0.14651947    -0.08700
C1291       C  0.84740495  0.68284404  0.11841360    -0.19000
C1292       C  0.84941250  0.68081895  0.09346228    -0.23800
C1293       C  0.82791545  0.68279513  0.07615616     0.26600
C1294       C  0.83009724  0.67322076  0.05193175    -0.20500
C1295       C  0.81105781  0.67636424  0.03453026    -0.10200
C1296       C  0.78949042  0.68957184  0.04075651    -0.10700
C1297       C  0.78705354  0.69856875  0.06525782    -0.03600
C1298       C  0.80602128  0.69538958  0.08266430    -0.18800
H1299       H  0.88057608  0.70427183  0.19474292     0.10300
H1300       H  0.84651807  0.69973504  0.16536840     0.10400
H1301       H  0.89664268  0.66739334  0.11169017     0.10100
H1302       H  0.93063619  0.67246435  0.14093648     0.11200
H1303       H  0.82920148  0.68499394  0.12662168     0.11300
H1304       H  0.86745799  0.67822537  0.08505682     0.13200
H1305       H  0.84676075  0.66352822  0.04633196     0.09700
H1306       H  0.81371942  0.66903343  0.01604481     0.11800
H1307       H  0.77053215  0.70833094  0.07106597     0.08400
H1308       H  0.80365008  0.70362705  0.10087459     0.11100
C1309       C  0.68219129  0.59736262  0.85810137    -0.03500
C1310       C  0.68311974  0.57822411  0.84012223    -0.06100
C1311       C  0.70044181  0.57887862  0.82077118    -0.21200
C1312       C  0.71716009  0.59866280  0.81856711     0.24600
C1313       C  0.71594312  0.61812515  0.83603868    -0.18700
C1314       C  0.69862873  0.61750717  0.85538421    -0.08700
C1315       C  0.73650326  0.59757391  0.79882172    -0.19000
C1316       C  0.74784827  0.61782707  0.78956943    -0.23800
C1317       C  0.76770801  0.61681898  0.77036731     0.26600
C1318       C  0.77175967  0.63775189  0.75551181    -0.20500
C1319       C  0.79099243  0.63826573  0.73811502    -0.10200
C1320       C  0.80706766  0.61779551  0.73520071    -0.10700
C1321       C  0.80280016  0.59673991  0.75012390    -0.03600
C1322       C  0.78345825  0.59622399  0.76747754    -0.18800
H1323       H  0.67115248  0.56226774  0.84090645     0.10300
H1324       H  0.70100225  0.56360899  0.80760266     0.10400
H1325       H  0.72886354  0.63344873  0.83542901     0.10100
H1326       H  0.69857661  0.63251574  0.86885724     0.11200
H1327       H  0.74091129  0.57943938  0.79114135     0.11300
H1328       H  0.74177717  0.63610464  0.79555046     0.13200
H1329       H  0.76000777  0.65393981  0.75746033     0.09700
H1330       H  0.79300335  0.65504416  0.72750358     0.11800
H1331       H  0.81479309  0.58069910  0.74856583     0.08400
H1332       H  0.78138772  0.57995061  0.77903067     0.11100
C1333       C  0.49383075  0.76591473  0.90812384    -0.03500
C1334       C  0.51710875  0.77260217  0.89857375    -0.06100
C1335       C  0.53746747  0.75692305  0.90132633    -0.21200
C1336       C  0.53518661  0.73412458  0.91365187     0.24600
C1337       C  0.51215794  0.72793944  0.92431359    -0.18700
C1338       C  0.49173753  0.74371648  0.92156326    -0.08700
C1339       C  0.55714909  0.71739184  0.91408536    -0.19000
C1340       C  0.55635496  0.69315011  0.92013915    -0.23800
C1341       C  0.57785081  0.67610715  0.91744960     0.26600
C1342       C  0.57839851  0.65436584  0.93162568    -0.20500
C1343       C  0.59711004  0.63678425  0.92822347    -0.10200
C1344       C  0.61561511  0.64009680  0.91005526    -0.10700
C1345       C  0.61543692  0.66244602  0.89643752    -0.03600
C1346       C  0.59676262  0.68010643  0.89995068    -0.18800
H1347       H  0.51965321  0.78997326  0.88883435     0.10300
H1348       H  0.55499216  0.76242747  0.89325765     0.10400
H1349       H  0.50957733  0.71097897  0.93464849     0.10100
H1350       H  0.47419367  0.73812724  0.92938755     0.11200
H1351       H  0.57459131  0.72529737  0.90800401     0.11300
H1352       H  0.53931978  0.68498922  0.92687134     0.13200
H1353       H  0.56408971  0.65081278  0.94527460     0.09700
H1354       H  0.59638463  0.62050612  0.93971667     0.11800
H1355       H  0.62953695  0.66648117  0.88280561     0.08400
H1356       H  0.59682840  0.69640558  0.88825786     0.11100
C1357       C  0.28798251  0.63731901  0.91298584    -0.03500
C1358       C  0.30959689  0.62957302  0.92522769    -0.06100
C1359       C  0.32856779  0.64647401  0.93056337    -0.21200
C1360       C  0.32621346  0.67159631  0.92416536     0.24600
C1361       C  0.30415112  0.67956537  0.91274605    -0.18700
C1362       C  0.28527377  0.66263879  0.90732321    -0.08700
C1363       C  0.34797464  0.68831253  0.92711801    -0.19000
C1364       C  0.34607256  0.71323206  0.92838774    -0.23800
C1365       C  0.36739865  0.73055311  0.92587319     0.26600
C1366       C  0.36242478  0.75493850  0.91826779    -0.20500
C1367       C  0.38167339  0.77129049  0.91282402    -0.10200
C1368       C  0.40643177  0.76375562  0.91514918    -0.10700
C1369       C  0.41157066  0.73993129  0.92425858    -0.03600
C1370       C  0.39224025  0.72337826  0.92950594    -0.18800
H1371       H  0.31241055  0.61031715  0.92977122     0.10300
H1372       H  0.34541524  0.63977810  0.93917483     0.10400
H1373       H  0.30172827  0.69859571  0.90689469     0.10100
H1374       H  0.26867469  0.66937745  0.89830357     0.11200
H1375       H  0.36606273  0.67962211  0.92678498     0.11300
H1376       H  0.32780958  0.72156596  0.92921885     0.13200
H1377       H  0.34352934  0.76112332  0.91561973     0.09700
H1378       H  0.37718093  0.78979581  0.90641940     0.11800
H1379       H  0.43048753  0.73377562  0.92642396     0.08400
H1380       H  0.39692598  0.70503637  0.93609547     0.11100
C1381       C  0.49386455  0.42848300  0.91166841    -0.03500
C1382       C  0.51807043  0.42092509  0.90580713    -0.06100
C1383       C  0.53797416  0.43726538  0.90849413    -0.21200
C1384       C  0.53428283  0.46165596  0.91697021     0.24600
C1385       C  0.51014528  0.46899860  0.92372288    -0.18700
C1386       C  0.49020427  0.45253632  0.92109917    -0.08700
C1387       C  0.55613797  0.47856740  0.91806574    -0.19000
C1388       C  0.55463928  0.50352850  0.91942226    -0.23800
C1389       C  0.57641384  0.52046592  0.91785059     0.26600
C1390       C  0.57359963  0.54514903  0.92578024    -0.20500
C1391       C  0.59264058  0.56240788  0.92257230    -0.10200
C1392       C  0.61498316  0.55552181  0.91118968    -0.10700
C1393       C  0.61812710  0.53064257  0.90381271    -0.03600
C1394       C  0.59907330  0.51331541  0.90700865    -0.18800
H1395       H  0.52166712  0.40231220  0.89904628     0.10300
H1396       H  0.55632761  0.43091813  0.90345164     0.10400
H1397       H  0.50640990  0.48731698  0.93105250     0.10100
H1398       H  0.47188831  0.45892316  0.92583980     0.11200
H1399       H  0.57419139  0.46990293  0.91664537     0.11300
H1400       H  0.53668761  0.51232384  0.92112752     0.13200
H1401       H  0.55633501  0.55128213  0.93398956     0.09700
H1402       H  0.58931975  0.58136898  0.92804142     0.11800
H1403       H  0.63520474  0.52461287  0.89517893     0.08400
H1404       H  0.60197932  0.49469153  0.90006679     0.11100
C1405       C  0.40744698  0.43228255  0.91060227    -0.03500
C1406       C  0.41244112  0.45429496  0.92377801    -0.06100
C1407       C  0.39435327  0.47268222  0.92629770    -0.21200
C1408       C  0.37068296  0.46944158  0.91604583     0.24600
C1409       C  0.36539994  0.44717763  0.90334562    -0.18700
C1410       C  0.38350194  0.42881108  0.90081501    -0.08700
C1411       C  0.35275792  0.49033791  0.91765747    -0.19000
C1412       C  0.32816425  0.48795484  0.91411449    -0.23800
C1413       C  0.31110319  0.50956580  0.91316335     0.26600
C1414       C  0.28941387  0.50768785  0.89894866    -0.20500
C1415       C  0.27393306  0.52824149  0.89586466    -0.10200
C1416       C  0.27972065  0.55120004  0.90707407    -0.10700
C1417       C  0.30063317  0.55252911  0.92258463    -0.03600
C1418       C  0.31615496  0.53200872  0.92560574    -0.18800
H1419       H  0.43044878  0.45778610  0.93166486     0.10300
H1420       H  0.39898742  0.48968017  0.93608959     0.10400
H1421       H  0.34762877  0.44399632  0.89467646     0.10100
H1422       H  0.37861515  0.41190088  0.89106496     0.11200
H1423       H  0.36049073  0.50859139  0.92126558     0.11300
H1424       H  0.32025819  0.46983564  0.91030208     0.13200
H1425       H  0.28478466  0.49044738  0.88959762     0.09700
H1426       H  0.25748814  0.52606297  0.88457512     0.11800
H1427       H  0.30554612  0.56949360  0.93201253     0.08400
H1428       H  0.33209735  0.53389455  0.93764435     0.11100
C1429       C  0.59135885  0.86064007  0.00013591    -0.03500
C1430       C  0.59282166  0.84380266  0.98005859    -0.06100
C1431       C  0.61208416  0.82659767  0.97834612    -0.21200
C1432       C  0.63042664  0.82546962  0.99675341     0.24600
C1433       C  0.62935401  0.84237065  0.01673586    -0.18700
C1434       C  0.61006956  0.85970576  0.01844592    -0.08700
C1435       C  0.65067141  0.80693485  0.99395095    -0.19000
C1436       C  0.66385970  0.79776579  0.01315514    -0.23800
C1437       C  0.68320719  0.77834116  0.00993306     0.26600
C1438       C  0.68796557  0.76177367  0.02942736    -0.20500
C1439       C  0.70533425  0.74269737  0.02657597    -0.10200
C1440       C  0.71883856  0.73990802  0.00430821    -0.10700
C1441       C  0.71445484  0.75713450  0.98505016    -0.03600
C1442       C  0.69698201  0.77608010  0.98788151    -0.18800
H1443       H  0.57886731  0.84397517  0.96557459     0.10300
H1444       H  0.61253275  0.81395759  0.96262577     0.10400
H1445       H  0.64357249  0.84255746  0.03091635     0.10100
H1446       H  0.61023008  0.87214666  0.03418248     0.11200
H1447       H  0.65371226  0.79944766  0.97541933     0.11300
H1448       H  0.65925212  0.80331545  0.03202554     0.13200
H1449       H  0.67775611  0.76319994  0.04671433     0.09700
H1450       H  0.70801264  0.72977520  0.04174054     0.11800
H1451       H  0.72375997  0.75607785  0.96738177     0.08400
H1452       H  0.69436261  0.78896277  0.97269922     0.11100
C1453       C  0.71199099  0.10381220  0.63922407    -0.03500
C1454       C  0.69748316  0.08213085  0.64087977    -0.06100
C1455       C  0.68055761  0.07890858  0.66023234    -0.21200
C1456       C  0.67743612  0.09735395  0.67839779     0.24600
C1457       C  0.69221588  0.11882052  0.67722077    -0.18700
C1458       C  0.70916173  0.12207619  0.65786276    -0.08700
C1459       C  0.65887817  0.09339699  0.69840827    -0.19000
C1460       C  0.64784645  0.11224631  0.71065377    -0.23800
C1461       C  0.62879097  0.10911156  0.73035923     0.26600
C1462       C  0.62313498  0.12966639  0.74536644    -0.20500
C1463       C  0.60476076  0.12828322  0.76354477    -0.10200
C1464       C  0.59146763  0.10609960  0.76737646    -0.10700
C1465       C  0.59692033  0.08560006  0.75197843    -0.03600
C1466       C  0.61539222  0.08698071  0.73380686    -0.18800
H1467       H  0.69915465  0.06766211  0.62692808     0.10300
H1468       H  0.66958254  0.06208263  0.66079117     0.10400
H1469       H  0.69106033  0.13309506  0.69137138     0.10100
H1470       H  0.71969032  0.13904445  0.65790984     0.11200
H1471       H  0.65382262  0.07436720  0.70247554     0.11300
H1472       H  0.65281140  0.13119354  0.70602855     0.13200
H1473       H  0.63281321  0.14709717  0.74281798     0.09700
H1474       H  0.60073496  0.14506448  0.77372794     0.11800
H1475       H  0.58655163  0.06849061  0.75380874     0.08400
H1476       H  0.61845438  0.07088664  0.72216147     0.11100
C1477       C  0.55110774  0.05886629  0.83773144    -0.03500
C1478       C  0.57283483  0.05330926  0.85089255    -0.06100
C1479       C  0.57276026  0.03543783  0.86957826    -0.21200
C1480       C  0.55107090  0.02240977  0.87547653     0.24600
C1481       C  0.52913257  0.02808029  0.86244352    -0.18700
C1482       C  0.52916616  0.04631810  0.84382384    -0.08700
C1483       C  0.55256567  0.00359205  0.89564409    -0.19000
C1484       C  0.53591732  0.98539134  0.89966173    -0.23800
C1485       C  0.53948407  0.96622289  0.91927922     0.26600
C1486       C  0.51875885  0.95460302  0.92986651    -0.20500
C1487       C  0.52164009  0.93663158  0.94846071    -0.10200
C1488       C  0.54536133  0.92966279  0.95658216    -0.10700
C1489       C  0.56609116  0.94099814  0.94565145    -0.03600
C1490       C  0.56322569  0.95889436  0.92715176    -0.18800
H1491       H  0.58989990  0.06309766  0.84699324     0.10300
H1492       H  0.58986061  0.03167792  0.87940942     0.10400
H1493       H  0.51188851  0.01888198  0.86674291     0.10100
H1494       H  0.51214796  0.05043758  0.83401806     0.11200
H1495       H  0.56879060  0.00461826  0.90751366     0.11300
H1496       H  0.51917493  0.98439647  0.88857290     0.13200
H1497       H  0.50027991  0.95962379  0.92389941     0.09700
H1498       H  0.50530309  0.92798449  0.95621380     0.11800
H1499       H  0.58464573  0.93630560  0.95159102     0.08400
H1500       H  0.57973525  0.96664205  0.91887972     0.11100
C1501       C  0.58971458  0.09888126  0.23357469    -0.03500
C1502       C  0.59142801  0.07848598  0.24983551    -0.06100
C1503       C  0.61092680  0.07637576  0.26673920    -0.21200
C1504       C  0.62912485  0.09481499  0.26832380     0.24600
C1505       C  0.62778383  0.11520552  0.25208412    -0.18700
C1506       C  0.60834914  0.11722065  0.23488236    -0.08700
C1507       C  0.64927814  0.09189202  0.28694642    -0.19000
C1508       C  0.66050703  0.11124993  0.29816018    -0.23800
C1509       C  0.67906215  0.10835902  0.31843546     0.26600
C1510       C  0.68156490  0.12745256  0.33601261    -0.20500
C1511       C  0.69858726  0.12546064  0.35546250    -0.10200
C1512       C  0.71408262  0.10452843  0.35769005    -0.10700
C1513       C  0.71165517  0.08540757  0.33986026    -0.03600
C1514       C  0.69438334  0.08733187  0.32047566    -0.18800
H1515       H  0.57748700  0.06402926  0.24942670     0.10300
H1516       H  0.61156717  0.06041291  0.27893588     0.10400
H1517       H  0.64187547  0.12948454  0.25241450     0.10100
H1518       H  0.60822252  0.13327381  0.22297922     0.11200
H1519       H  0.65342597  0.07317299  0.29310864     0.11300
H1520       H  0.65453979  0.12997477  0.29372666     0.13200
H1521       H  0.67003003  0.14386253  0.33491414     0.09700
H1522       H  0.69964655  0.14039338  0.36897926     0.11800
H1523       H  0.72262290  0.06872247  0.34072335     0.08400
H1524       H  0.69332622  0.07243401  0.30696026     0.11100
C1525       C  0.54089526  0.05461408  0.16697163    -0.03500
C1526       C  0.54665904  0.03026755  0.17419493    -0.06100
C1527       C  0.54367429  0.01050725  0.15760021    -0.21200
C1528       C  0.53518776  0.01458994  0.13327903     0.24600
C1529       C  0.52863195  0.03890278  0.12623100    -0.18700
C1530       C  0.53141054  0.05871621  0.14299879    -0.08700
C1531       C  0.53386191  0.99292694  0.11606268    -0.19000
C1532       C  0.53505936  0.99470040  0.09107567    -0.23800
C1533       C  0.53693127  0.97277845  0.07417198     0.26600
C1534       C  0.53084757  0.97567058  0.04894334    -0.20500
C1535       C  0.53382609  0.95602801  0.03210177    -0.10200
C1536       C  0.54322982  0.93307801  0.04007097    -0.10700
C1537       C  0.54922993  0.93007604  0.06531718    -0.03600
C1538       C  0.54618120  0.94967680  0.08218229    -0.18800
H1539       H  0.55355113  0.02648684  0.19272632     0.10300
H1540       H  0.54858741  0.99197726  0.16363540     0.10400
H1541       H  0.52134131  0.04274746  0.10790459     0.10100
H1542       H  0.52680496  0.07731598  0.13697434     0.11200
H1543       H  0.53330836  0.97472280  0.12460178     0.11300
H1544       H  0.53539289  0.01287549  0.08245228     0.13200
H1545       H  0.52401733  0.99330986  0.04217094     0.09700
H1546       H  0.52948390  0.95910134  0.01268453     0.11800
H1547       H  0.55643521  0.91258006  0.07203953     0.08400
H1548       H  0.55187652  0.94675871  0.10122971     0.11100
C1549       C  0.58809173  0.33989424  0.00221901    -0.03500
C1550       C  0.59176665  0.35348881  0.02436689    -0.06100
C1551       C  0.61057288  0.37121099  0.02633231    -0.21200
C1552       C  0.62642661  0.37591986  0.00626699     0.24600
C1553       C  0.62281588  0.36258591  0.98397029    -0.18700
C1554       C  0.60395177  0.34480363  0.98197230    -0.08700
C1555       C  0.64549187  0.39579193  0.00895015    -0.19000
C1556       C  0.66628935  0.39685484  0.99512934    -0.23800
C1557       C  0.68490041  0.41731974  0.99657469     0.26600
C1558       C  0.70153900  0.41999805  0.97678428    -0.20500
C1559       C  0.71874359  0.43936726  0.97642094    -0.10200
C1560       C  0.71996999  0.45684673  0.99603597    -0.10700
C1561       C  0.70393523  0.45343007  0.01642828    -0.03600
C1562       C  0.68662338  0.43401654  0.01673516    -0.18800
H1563       H  0.57978215  0.35050750  0.04022987     0.10300
H1564       H  0.61268088  0.38137434  0.04363855     0.10400
H1565       H  0.63400902  0.36627994  0.96772525     0.10100
H1566       H  0.60178407  0.33560333  0.96427295     0.11200
H1567       H  0.64202866  0.40991965  0.02293108     0.11300
H1568       H  0.66967679  0.38240488  0.98143265     0.13200
H1569       H  0.70094907  0.40723657  0.96115942     0.09700
H1570       H  0.73062553  0.44023019  0.96041078     0.11800
H1571       H  0.70452777  0.46619234  0.03204117     0.08400
H1572       H  0.67479615  0.43225716  0.03283576     0.11100
C1573       C  0.54144032  0.13901557  0.16147016    -0.03500
C1574       C  0.51742034  0.14618398  0.15445378    -0.06100
C1575       C  0.51383107  0.16390284  0.13570737    -0.21200
C1576       C  0.53413323  0.17455266  0.12337402     0.24600
C1577       C  0.55813714  0.16712070  0.13030497    -0.18700
C1578       C  0.56169244  0.14949538  0.14892581    -0.08700
C1579       C  0.52996548  0.19458191  0.10472831    -0.19000
C1580       C  0.54667374  0.20009390  0.08694806    -0.23800
C1581       C  0.54559521  0.22222177  0.07047163     0.26600
C1582       C  0.56772603  0.23001554  0.05931240    -0.20500
C1583       C  0.56831172  0.25096335  0.04416746    -0.10200
C1584       C  0.54666893  0.26457786  0.03950815    -0.10700
C1585       C  0.52430027  0.25659208  0.05013210    -0.03600
C1586       C  0.52374522  0.23566151  0.06563147    -0.18800
H1587       H  0.50141983  0.13864077  0.16388887     0.10300
H1588       H  0.49515980  0.16948420  0.13098238     0.10400
H1589       H  0.57438920  0.17536023  0.12201239     0.10100
H1590       H  0.58044853  0.14412333  0.15349256     0.11200
H1591       H  0.51316823  0.20546192  0.10644699     0.11300
H1592       H  0.56299805  0.18851784  0.08509100     0.13200
H1593       H  0.58479217  0.21996394  0.06252486     0.09700
H1594       H  0.58571875  0.25626432  0.03574267     0.11800
H1595       H  0.50732167  0.26668699  0.04668232     0.08400
H1596       H  0.50620947  0.22999281  0.07343945     0.11100
C1597       C  0.54511183  0.13907548  0.84296140    -0.03500
C1598       C  0.56595234  0.14394155  0.85776717    -0.06100
C1599       C  0.56455102  0.16049649  0.87766452    -0.21200
C1600       C  0.54238661  0.17289648  0.88314230     0.24600
C1601       C  0.52114904  0.16740303  0.86885628    -0.18700
C1602       C  0.52251103  0.15041462  0.84898315    -0.08700
C1603       C  0.54300933  0.19168439  0.90348392    -0.19000
C1604       C  0.52659832  0.21029363  0.90648122    -0.23800
C1605       C  0.53097957  0.23077063  0.92464406     0.26600
C1606       C  0.51087466  0.24291439  0.93588090    -0.20500
C1607       C  0.51484141  0.26225110  0.95298607    -0.10200
C1608       C  0.53900416  0.27007745  0.95880786    -0.10700
C1609       C  0.55903654  0.25830238  0.94704677    -0.03600
C1610       C  0.55509573  0.23901309  0.93012038    -0.18800
H1611       H  0.58349161  0.13504434  0.85377064     0.10300
H1612       H  0.58112722  0.16413212  0.88843675     0.10400
H1613       H  0.50357815  0.17613597  0.87284412     0.10100
H1614       H  0.50618263  0.14671972  0.83787089     0.11200
H1615       H  0.55896898  0.19103765  0.91576253     0.11300
H1616       H  0.51000441  0.21109388  0.89515582     0.13200
H1617       H  0.49210842  0.23721567  0.93165416     0.09700
H1618       H  0.49900673  0.27115878  0.96151834     0.11800
H1619       H  0.57790097  0.26359633  0.95129646     0.08400
H1620       H  0.57104732  0.23079522  0.92115016     0.11100
C1621       C  0.18128396  0.09623560  0.64348598    -0.03500
C1622       C  0.18182731  0.07554532  0.65951208    -0.06100
C1623       C  0.19863009  0.07445791  0.67936305    -0.21200
C1624       C  0.21554194  0.09377524  0.68376958     0.24600
C1625       C  0.21473526  0.11469154  0.66814873    -0.18700
C1626       C  0.19803899  0.11574670  0.64824772    -0.08700
C1627       C  0.23340888  0.09141843  0.70492327    -0.19000
C1628       C  0.25471322  0.10446773  0.70661717    -0.23800
C1629       C  0.27321769  0.10231163  0.72723186     0.26600
C1630       C  0.29202325  0.12022122  0.72867917    -0.20500
C1631       C  0.31031932  0.11892453  0.74700497    -0.10200
C1632       C  0.31075065  0.09945894  0.76443935    -0.10700
C1633       C  0.29174303  0.08151742  0.76312895    -0.03600
C1634       C  0.27325125  0.08292145  0.74478737    -0.18800
H1635       H  0.16991089  0.05973730  0.65675299     0.10300
H1636       H  0.19869901  0.05815174  0.69111229     0.10400
H1637       H  0.22676188  0.13044488  0.67119429     0.10100
H1638       H  0.19827669  0.13193175  0.63633929     0.11200
H1639       H  0.22889245  0.07795701  0.71915054     0.11300
H1640       H  0.25922974  0.11752784  0.69200425     0.13200
H1641       H  0.29263301  0.13537388  0.71548580     0.09700
H1642       H  0.32451519  0.13312891  0.74739945     0.11800
H1643       H  0.29089707  0.06616972  0.77590696     0.08400
H1644       H  0.25942916  0.06843880  0.74427649     0.11100
C1645       C  0.30979788  0.85871509  0.99487140    -0.03500
C1646       C  0.30914749  0.84230663  0.97439051    -0.06100
C1647       C  0.29086172  0.82403753  0.97233536    -0.21200
C1648       C  0.27253935  0.82157700  0.99062821     0.24600
C1649       C  0.27297454  0.83796761  0.01110023    -0.18700
C1650       C  0.29123842  0.85631189  0.01314117    -0.08700
C1651       C  0.25429258  0.80088390  0.98829317    -0.19000
C1652       C  0.23275893  0.79991683  0.00094254    -0.23800
C1653       C  0.21524568  0.77856066  0.99995472     0.26600
C1654       C  0.19867533  0.77543358  0.01975271    -0.20500
C1655       C  0.18195101  0.75563871  0.02005342    -0.10200
C1656       C  0.18105684  0.73840023  0.00025003    -0.10700
C1657       C  0.19757443  0.74179976  0.98024193    -0.03600
C1658       C  0.21437857  0.76160118  0.98000647    -0.18800
H1659       H  0.32317739  0.84341235  0.96004769     0.10300
H1660       H  0.29119040  0.81159957  0.95645190     0.10400
H1661       H  0.25979031  0.83634506  0.02610954     0.10100
H1662       H  0.29078009  0.86790765  0.02949640     0.11200
H1663       H  0.25915429  0.78576946  0.97583910     0.11300
H1664       H  0.22783107  0.81503097  0.01334662     0.13200
H1665       H  0.19890254  0.78822784  0.03535864     0.09700
H1666       H  0.17024927  0.75411732  0.03616893     0.11800
H1667       H  0.19749646  0.72893747  0.96470012     0.08400
H1668       H  0.22634681  0.76362854  0.96403232     0.11100
C1669       C  0.35855714  0.92700891  0.95317385    -0.03500
C1670       C  0.35342324  0.92029343  0.92842572    -0.06100
C1671       C  0.35674253  0.93730133  0.90914801    -0.21200
C1672       C  0.36505492  0.96152644  0.91407235     0.24600
C1673       C  0.37113490  0.96797316  0.93879910    -0.18700
C1674       C  0.36790526  0.95085056  0.95811435    -0.08700
C1675       C  0.36634826  0.97931811  0.89288283    -0.19000
C1676       C  0.36750423  0.00421036  0.89548130    -0.23800
C1677       C  0.36557658  0.02190030  0.87429086     0.26600
C1678       C  0.37423158  0.04623954  0.87758003    -0.20500
C1679       C  0.37089311  0.06410257  0.85905007    -0.10200
C1680       C  0.35839702  0.05827558  0.83683675    -0.10700
C1681       C  0.35029270  0.03366427  0.83326519    -0.03600
C1682       C  0.35372751  0.01573229  0.85175395    -0.18800
H1683       H  0.34670044  0.90187139  0.92394599     0.10300
H1684       H  0.35219587  0.93165110  0.89032281     0.10400
H1685       H  0.37827893  0.98612917  0.94348778     0.10100
H1686       H  0.37203022  0.95655048  0.97700874     0.11200
H1687       H  0.36504495  0.97142801  0.87432943     0.11300
H1688       H  0.36924620  0.01234872  0.91386507     0.13200
H1689       H  0.38333614  0.05158062  0.89475331     0.09700
H1690       H  0.37755973  0.08259155  0.86263160     0.11800
H1691       H  0.34112041  0.02816101  0.81621451     0.08400
H1692       H  0.34626536  0.99737574  0.84854621     0.11100
C1693       C  0.18314839  0.45685437  0.99564165    -0.03500
C1694       C  0.19876265  0.45449900  0.97476648    -0.06100
C1695       C  0.21612323  0.43537323  0.97312252    -0.21200
C1696       C  0.21865767  0.41812595  0.99240676     0.24600
C1697       C  0.20283363  0.41999964  0.01312275    -0.18700
C1698       C  0.18536160  0.43914519  0.01477165    -0.08700
C1699       C  0.23777958  0.39837419  0.98999605    -0.19000
C1700       C  0.24841026  0.38720682  0.00972498    -0.23800
C1701       C  0.26849664  0.36821824  0.00820487     0.26600
C1702       C  0.27800660  0.35875401  0.03055088    -0.20500
C1703       C  0.29718783  0.34136406  0.03051507    -0.10200
C1704       C  0.30716813  0.33239068  0.00800517    -0.10700
C1705       C  0.29811270  0.34245330  0.98561680    -0.03600
C1706       C  0.27884906  0.35982070  0.98563554    -0.18800
H1707       H  0.19761067  0.46773476  0.95967559     0.10300
H1708       H  0.22790609  0.43429245  0.95685146     0.10400
H1709       H  0.20363425  0.40657400  0.02802010     0.10100
H1710       H  0.17394418  0.43978059  0.03118655     0.11200
H1711       H  0.24394793  0.39409110  0.97131465     0.11300
H1712       H  0.24268901  0.39276957  0.02827470     0.13200
H1713       H  0.27083600  0.36516797  0.04826518     0.09700
H1714       H  0.30454494  0.33564814  0.04829188     0.11800
H1715       H  0.30618035  0.33717223  0.96794788     0.08400
H1716       H  0.27262872  0.36669136  0.96786383     0.11100
C1717       C  0.35499571  0.26251738  0.96519196    -0.03500
C1718       C  0.37064220  0.24206922  0.96938687    -0.06100
C1719       C  0.37304326  0.22318723  0.95159163    -0.21200
C1720       C  0.36036236  0.22443540  0.92885000     0.24600
C1721       C  0.34512690  0.24509558  0.92429069    -0.18700
C1722       C  0.34261031  0.26390437  0.94213739    -0.08700
C1723       C  0.36248607  0.20330222  0.91099884    -0.19000
C1724       C  0.35850655  0.20547554  0.88629801    -0.23800
C1725       C  0.35881156  0.18431175  0.86827480     0.26600
C1726       C  0.34862090  0.18802395  0.84453792    -0.20500
C1727       C  0.34717104  0.16853992  0.82733055    -0.10200
C1728       C  0.35596582  0.14471312  0.83334722    -0.10700
C1729       C  0.36722513  0.14129394  0.85665283    -0.03600
C1730       C  0.36862328  0.16076813  0.87394636    -0.18800
H1731       H  0.38081652  0.24016360  0.98652039     0.10300
H1732       H  0.38486396  0.20746823  0.95565032     0.10400
H1733       H  0.33456284  0.24659479  0.90726600     0.10100
H1734       H  0.33088179  0.27952858  0.93767940     0.11200
H1735       H  0.36743080  0.18546782  0.91881139     0.11300
H1736       H  0.35407392  0.22360628  0.87877603     0.13200
H1737       H  0.34128452  0.20601161  0.83940078     0.09700
H1738       H  0.33904791  0.17220818  0.80930118     0.11800
H1739       H  0.37445329  0.12345976  0.86193455     0.08400
H1740       H  0.37739692  0.15709705  0.89161675     0.11100
C1741       C  0.30833784  0.09533689  0.23770633    -0.03500
C1742       C  0.30551651  0.07435671  0.25302480    -0.06100
C1743       C  0.28634798  0.07292564  0.27037690    -0.21200
C1744       C  0.26952352  0.09253060  0.27320929     0.24600
C1745       C  0.27198824  0.11344364  0.25776735    -0.18700
C1746       C  0.29116832  0.11487979  0.24034354    -0.08700
C1747       C  0.24968466  0.09019266  0.29228534    -0.19000
C1748       C  0.23724381  0.10967533  0.30190343    -0.23800
C1749       C  0.21822137  0.10753027  0.32178815     0.26600
C1750       C  0.20139882  0.12708333  0.32499884    -0.20500
C1751       C  0.18410260  0.12676482  0.34432065    -0.10200
C1752       C  0.18324143  0.10678825  0.36120008    -0.10700
C1753       C  0.20005609  0.08708322  0.35773262    -0.03600
C1754       C  0.21732917  0.08741619  0.33838291    -0.18800
H1755       H  0.31833982  0.05896410  0.25156541     0.10300
H1756       H  0.28486158  0.05651001  0.28187604     0.10400
H1757       H  0.25902598  0.12868997  0.25870860     0.10100
H1758       H  0.29217648  0.13146835  0.22926573     0.11200
H1759       H  0.24575900  0.07164248  0.29900416     0.11300
H1760       H  0.24108121  0.12824042  0.29520827     0.13200
H1761       H  0.20182003  0.14291496  0.31261550     0.09700
H1762       H  0.17212559  0.14264779  0.34595815     0.11800
H1763       H  0.20016974  0.07155715  0.37049613     0.08400
H1764       H  0.23039723  0.07227556  0.33714090     0.11100
C1765       C  0.35708143  0.13602878  0.16668048    -0.03500
C1766       C  0.36430098  0.12856108  0.14272300    -0.06100
C1767       C  0.36707745  0.14606295  0.12378491    -0.21200
C1768       C  0.36307684  0.17140503  0.12847654     0.24600
C1769       C  0.35624873  0.17891649  0.15264438    -0.18700
C1770       C  0.35328583  0.16137635  0.17152312    -0.08700
C1771       C  0.36430509  0.18905761  0.10731231    -0.19000
C1772       C  0.36799456  0.21367414  0.11003599    -0.23800
C1773       C  0.36638338  0.23163981  0.08913318     0.26600
C1774       C  0.36096514  0.25655759  0.09462880    -0.20500
C1775       C  0.35734331  0.27373832  0.07553661    -0.10200
C1776       C  0.35948583  0.26642019  0.05054015    -0.10700
C1777       C  0.36596470  0.24182959  0.04500475    -0.03600
C1778       C  0.36943963  0.22456937  0.06406118    -0.18800
H1779       H  0.36695040  0.10909407  0.13837406     0.10300
H1780       H  0.37205839  0.13974563  0.10529357     0.10400
H1781       H  0.35226963  0.19812938  0.15692796     0.10100
H1782       H  0.34775971  0.16761256  0.18987561     0.11200
H1783       H  0.36138198  0.18127853  0.08891160     0.11300
H1784       H  0.37101032  0.22133211  0.12848782     0.13200
H1785       H  0.35876636  0.26259491  0.11375201     0.09700
H1786       H  0.35257248  0.29270444  0.08027340     0.11800
H1787       H  0.36743979  0.23566945  0.02594250     0.08400
H1788       H  0.37439527  0.20579323  0.05895842     0.11100
C1789       C  0.34988276  0.05430671  0.16434992    -0.03500
C1790       C  0.32778571  0.04743529  0.15237811    -0.06100
C1791       C  0.32802653  0.03108050  0.13225422    -0.21200
C1792       C  0.35028054  0.02091916  0.12355451     0.24600
C1793       C  0.37258082  0.02786906  0.13528655    -0.18700
C1794       C  0.37235367  0.04456744  0.15545282    -0.08700
C1795       C  0.34888738  0.00365497  0.10194382    -0.19000
C1796       C  0.36581107  0.98610898  0.09640197    -0.23800
C1797       C  0.36184347  0.96741885  0.07622097     0.26600
C1798       C  0.38232470  0.95581120  0.06508875    -0.20500
C1799       C  0.37903757  0.93780883  0.04645433    -0.10200
C1800       C  0.35514534  0.93085120  0.03871444    -0.10700
C1801       C  0.33467642  0.94235226  0.05001493    -0.03600
C1802       C  0.33794125  0.96019593  0.06863062    -0.18800
H1803       H  0.31020122  0.05511140  0.15820680     0.10300
H1804       H  0.31061381  0.02626860  0.12345770     0.10400
H1805       H  0.39016567  0.02082911  0.12876169     0.10100
H1806       H  0.38968243  0.04964678  0.16422076     0.11200
H1807       H  0.33225628  0.00490013  0.09070223     0.11300
H1808       H  0.38283521  0.98500547  0.10705464     0.13200
H1809       H  0.40092555  0.96069518  0.07082302     0.09700
H1810       H  0.39522236  0.92900401  0.03852052     0.11800
H1811       H  0.31599574  0.93770637  0.04442003     0.08400
H1812       H  0.32157300  0.96784451  0.07729829     0.11100
C1813       C  0.40645259  0.00404700  0.32890420    -0.03500
C1814       C  0.38184242  0.99910942  0.32200553    -0.06100
C1815       C  0.36247716  0.00305003  0.33875891    -0.21200
C1816       C  0.36713286  0.01181081  0.36294427     0.24600
C1817       C  0.39171581  0.01760788  0.36961586    -0.18700
C1818       C  0.41111944  0.01382022  0.35269991    -0.08700
C1819       C  0.34575669  0.01410994  0.38037042    -0.19000
C1820       C  0.34780848  0.01573014  0.40535068    -0.23800
C1821       C  0.32624385  0.01493383  0.42265937     0.26600
C1822       C  0.32931178  0.02359720  0.44714015    -0.20500
C1823       C  0.31032139  0.02114608  0.46466634    -0.10200
C1824       C  0.28783201  0.00973278  0.45823395    -0.10700
C1825       C  0.28449643  0.00161765  0.43354715    -0.03600
C1826       C  0.30345471  0.00406533  0.41600255    -0.18800
H1827       H  0.37751306  0.99213396  0.30358713     0.10300
H1828       H  0.34376865  0.99871735  0.33291935     0.10400
H1829       H  0.39618794  0.02508020  0.38775269     0.10100
H1830       H  0.42979871  0.01796227  0.35851532     0.11200
H1831       H  0.32746870  0.01327544  0.37208797     0.11300
H1832       H  0.36596597  0.01700287  0.41383184     0.13200
H1833       H  0.34669659  0.03184514  0.45289180     0.09700
H1834       H  0.31374991  0.02727636  0.48346717     0.11800
H1835       H  0.26730902  0.99298936  0.42781150     0.08400
H1836       H  0.30036653  0.99652894  0.39759847     0.11100
C1837       C  0.45312957  0.95689795  0.73850208    -0.03500
C1838       C  0.47381142  0.95531847  0.75437709    -0.06100
C1839       C  0.47554551  0.93669213  0.77227524    -0.21200
C1840       C  0.45680243  0.91888602  0.77471468     0.24600
C1841       C  0.43632212  0.91997358  0.75857919    -0.18700
C1842       C  0.43454676  0.93864988  0.74066260    -0.08700
C1843       C  0.45866779  0.90062477  0.79530309    -0.19000
C1844       C  0.44567049  0.87929423  0.79625950    -0.23800
C1845       C  0.44651331  0.86203346  0.81775971     0.26600
C1846       C  0.42655055  0.84584616  0.82148820    -0.20500
C1847       C  0.42615258  0.82968636  0.84177936    -0.10200
C1848       C  0.44594252  0.82919011  0.85888796    -0.10700
C1849       C  0.46614582  0.84517448  0.85474966    -0.03600
C1850       C  0.46655465  0.86124382  0.83443273    -0.18800
H1851       H  0.48846293  0.96900531  0.75328813     0.10300
H1852       H  0.49149006  0.93640009  0.78450482     0.10400
H1853       H  0.42109744  0.90707023  0.76018083     0.10100
H1854       H  0.41817686  0.93873071  0.72923839     0.11200
H1855       H  0.47105749  0.90541643  0.81045563     0.11300
H1856       H  0.43319492  0.87447171  0.78119546     0.13200
H1857       H  0.41094565  0.84596030  0.80881390     0.09700
H1858       H  0.41008908  0.81803681  0.84374878     0.11800
H1859       H  0.48176329  0.84519391  0.86740425     0.08400
H1860       H  0.48274679  0.87272761  0.83183780     0.11100
C1861       C  0.28671342  0.00888850  0.54329412    -0.03500
C1862       C  0.30574756  0.02649312  0.54014838    -0.06100
C1863       C  0.32428368  0.02956089  0.55806470    -0.21200
C1864       C  0.32434835  0.01541850  0.57989642     0.24600
C1865       C  0.30504066  0.99827669  0.58358377    -0.18700
C1866       C  0.28642119  0.99524442  0.56567737    -0.08700
C1867       C  0.34563929  0.01810149  0.59741228    -0.19000
C1868       C  0.34527497  0.01038012  0.62125683    -0.23800
C1869       C  0.36702627  0.01091124  0.63842679     0.26600
C1870       C  0.36309461  0.00478459  0.66348946    -0.20500
C1871       C  0.38294993  0.00260935  0.67998084    -0.10200
C1872       C  0.40732542  0.00660555  0.67187714    -0.10700
C1873       C  0.41135861  0.01372134  0.64714605    -0.03600
C1874       C  0.39147143  0.01568202  0.63047978    -0.18800
H1875       H  0.30700385  0.03779486  0.52374110     0.10300
H1876       H  0.33888159  0.04291967  0.55466035     0.10400
H1877       H  0.30445494  0.98659694  0.59988236     0.10100
H1878       H  0.27194427  0.98199857  0.56959641     0.11200
H1879       H  0.36207081  0.02702438  0.59014513     0.11300
H1880       H  0.32815142  0.00315006  0.62884767     0.13200
H1881       H  0.34458477  0.00105520  0.67025487     0.09700
H1882       H  0.37927532  0.99736987  0.69906658     0.11800
H1883       H  0.42996030  0.01663603  0.64038315     0.08400
H1884       H  0.39563390  0.02008158  0.61134952     0.11100
C1885       C  0.68304926  0.96402000  0.50165277    -0.03500
C1886       C  0.69922505  0.96313286  0.52221108    -0.06100
C1887       C  0.71811976  0.94546759  0.52351448    -0.21200
C1888       C  0.72134847  0.92793214  0.50444336     0.24600
C1889       C  0.70493370  0.92836197  0.48407889    -0.18700
C1890       C  0.68603084  0.94606040  0.48274364    -0.08700
C1891       C  0.74282401  0.91058321  0.50590838    -0.19000
C1892       C  0.74481894  0.88964996  0.49220101    -0.23800
C1893       C  0.76660797  0.87265968  0.49248587     0.26600
C1894       C  0.76853718  0.85491025  0.47344883    -0.20500
C1895       C  0.78843810  0.83840333  0.47251162    -0.10200
C1896       C  0.80718712  0.83904974  0.49077680    -0.10700
C1897       C  0.80499419  0.85666905  0.51010510    -0.03600
C1898       C  0.78504501  0.87324696  0.51100570    -0.18800
H1899       H  0.69766508  0.97672970  0.53702945     0.10300
H1900       H  0.73050958  0.94574885  0.53937207     0.10400
H1901       H  0.70704200  0.91577611  0.46853164     0.10100
H1902       H  0.67463600  0.94583849  0.46630038     0.11200
H1903       H  0.75749107  0.91560682  0.51872753     0.11300
H1904       H  0.72990439  0.88457360  0.47969232     0.13200
H1905       H  0.75457307  0.85387174  0.45899961     0.09700
H1906       H  0.78862563  0.82544680  0.45723805     0.11800
H1907       H  0.81892320  0.85763722  0.52458398     0.08400
H1908       H  0.78415992  0.88613162  0.52642440     0.11100
C1909       C  0.49481467  0.00675971  0.67126468    -0.03500
C1910       C  0.51903331  0.99981730  0.67780386    -0.06100
C1911       C  0.53869813  0.00363268  0.66143956    -0.21200
C1912       C  0.53477789  0.01437789  0.63802486     0.24600
C1913       C  0.51065887  0.02222388  0.63178206    -0.18700
C1914       C  0.49093749  0.01850488  0.64831021    -0.08700
C1915       C  0.55638645  0.01639452  0.62089324    -0.19000
C1916       C  0.55470366  0.02077339  0.59626855    -0.23800
C1917       C  0.57622930  0.01955431  0.57899830     0.26600
C1918       C  0.57455212  0.03151970  0.55594843    -0.20500
C1919       C  0.59319680  0.02881249  0.53811629    -0.10200
C1920       C  0.61389914  0.01360634  0.54259876    -0.10700
C1921       C  0.61605699  0.00251946  0.56622629    -0.03600
C1922       C  0.59743490  0.00528273  0.58409982    -0.18800
H1923       H  0.52286827  0.99139827  0.69565814     0.10300
H1924       H  0.55704494  0.99769317  0.66696706     0.10400
H1925       H  0.50676038  0.03122916  0.61428787     0.10100
H1926       H  0.47260814  0.02433945  0.64282925     0.11200
H1927       H  0.57447554  0.01299386  0.62895439     0.11300
H1928       H  0.53687784  0.02478945  0.58797369     0.13200
H1929       H  0.55848215  0.04269275  0.55151211     0.09700
H1930       H  0.59070957  0.03818405  0.52065969     0.11800
H1931       H  0.63196131  0.99134416  0.57101327     0.08400
H1932       H  0.59940676  0.99536214  0.60143912     0.11100
C1933       C  0.61326917  0.01088640  0.45681868    -0.03500
C1934       C  0.59055780  0.02236068  0.46210647    -0.06100
C1935       C  0.57245684  0.02487079  0.44368285    -0.21200
C1936       C  0.57652238  0.01591729  0.41947117     0.24600
C1937       C  0.59962485  0.00512347  0.41389448    -0.18700
C1938       C  0.61769770  0.00258635  0.43237450    -0.08700
C1939       C  0.55614331  0.01820697  0.40087514    -0.19000
C1940       C  0.55493676  0.00482073  0.37965429    -0.23800
C1941       C  0.53379654  0.00544435  0.36183604     0.26600
C1942       C  0.53728513  0.99506917  0.33812196    -0.20500
C1943       C  0.51762054  0.99309252  0.32137967    -0.10200
C1944       C  0.49377226  0.00123366  0.32798051    -0.10700
C1945       C  0.49040144  0.01249915  0.35132718    -0.03600
C1946       C  0.51012239  0.01446102  0.36817872    -0.18800
H1947       H  0.58635375  0.02878332  0.48061841     0.10300
H1948       H  0.55495621  0.03341311  0.44853918     0.10400
H1949       H  0.60409796  0.99880738  0.39533652     0.10100
H1950       H  0.63525939  0.99427161  0.42741689     0.11200
H1951       H  0.54122138  0.03085148  0.40548375     0.11300
H1952       H  0.56984685  0.99216856  0.37506376     0.13200
H1953       H  0.55528099  0.98810203  0.33261351     0.09700
H1954       H  0.52113098  0.98497413  0.30326892     0.11800
H1955       H  0.47236106  0.01895164  0.35702395     0.08400
H1956       H  0.50635392  0.02218354  0.38636511     0.11100
C1957       C  0.40823537  0.43830137  0.09655473    -0.03500
C1958       C  0.41292501  0.45840781  0.08060700    -0.06100
C1959       C  0.39500441  0.47667512  0.07659233    -0.21200
C1960       C  0.37180425  0.47527227  0.08816614     0.24600
C1961       C  0.36687117  0.45503955  0.10390228    -0.18700
C1962       C  0.38478529  0.43673948  0.10788538    -0.08700
C1963       C  0.35402857  0.49608003  0.08468801    -0.19000
C1964       C  0.32945754  0.49400960  0.08854230    -0.23800
C1965       C  0.31160679  0.51512931  0.08771401     0.26600
C1966       C  0.28719090  0.51071647  0.09545648    -0.20500
C1967       C  0.27015639  0.53013236  0.09717203    -0.10200
C1968       C  0.27707972  0.55451256  0.09108639    -0.10700
C1969       C  0.30103573  0.55882915  0.08212511    -0.03600
C1970       C  0.31818717  0.53941740  0.08049287    -0.18800
H1971       H  0.43057626  0.46055926  0.07154373     0.10300
H1972       H  0.39939877  0.49214673  0.06454042     0.10400
H1973       H  0.34950493  0.45349224  0.11374664     0.10100
H1974       H  0.38008667  0.42136866  0.11988375     0.11200
H1975       H  0.36188807  0.51363581  0.07895781     0.11300
H1976       H  0.32189674  0.47598390  0.09330804     0.13200
H1977       H  0.28139781  0.49224391  0.10085049     0.09700
H1978       H  0.25160207  0.52609784  0.10359712     0.11800
H1979       H  0.30686716  0.57735612  0.07726037     0.08400
H1980       H  0.33651878  0.54386752  0.07392523     0.11100
C1981       C  0.68515111  0.59165285  0.14003861    -0.03500
C1982       C  0.68535252  0.57136803  0.15656308    -0.06100
C1983       C  0.70201610  0.57060856  0.17646730    -0.21200
C1984       C  0.71904752  0.58987225  0.18041939     0.24600
C1985       C  0.71860094  0.61039946  0.16430446    -0.18700
C1986       C  0.70198312  0.61116308  0.14439170    -0.08700
C1987       C  0.73654975  0.58790940  0.20175060    -0.19000
C1988       C  0.75777971  0.60096351  0.20348985    -0.23800
C1989       C  0.77570069  0.59878169  0.22442428     0.26600
C1990       C  0.79323976  0.61769357  0.22764581    -0.20500
C1991       C  0.81118579  0.61608749  0.24625063    -0.10200
C1992       C  0.81240511  0.59534833  0.26209545    -0.10700
C1993       C  0.79457315  0.57646429  0.25902057    -0.03600
C1994       C  0.77651975  0.57813250  0.24039585    -0.18800
H1995       H  0.67311236  0.55573850  0.15437977     0.10300
H1996       H  0.70180349  0.55465241  0.18868952     0.10400
H1997       H  0.73073713  0.62612075  0.16703181     0.10100
H1998       H  0.70230446  0.62711557  0.13217105     0.11200
H1999       H  0.73175733  0.57481266  0.21624023     0.11300
H2000       H  0.76258280  0.61397283  0.18892633     0.13200
H2001       H  0.79316217  0.63378492  0.21560174     0.09700
H2002       H  0.82454524  0.63098921  0.24804567     0.11800
H2003       H  0.79442099  0.56007508  0.27044111     0.08400
H2004       H  0.76379208  0.56279715  0.23824775     0.11100
C2005       C  0.61623087  0.55640119  0.08480063    -0.03500
C2006       C  0.59257980  0.56428008  0.07761102    -0.06100
C2007       C  0.57380295  0.54694706  0.07311867    -0.21200
C2008       C  0.57830796  0.52138746  0.07568835     0.24600
C2009       C  0.60248037  0.51351098  0.08157857    -0.18700
C2010       C  0.62113420  0.53086997  0.08631218    -0.08700
C2011       C  0.55714347  0.50382396  0.07294685    -0.19000
C2012       C  0.55710302  0.48074286  0.08262950    -0.23800
C2013       C  0.53518942  0.46395698  0.08354795     0.26600
C2014       C  0.53878842  0.43966764  0.09223440    -0.20500
C2015       C  0.51869059  0.42397497  0.09649324    -0.10200
C2016       C  0.49440984  0.43217565  0.09217091    -0.10700
C2017       C  0.49075001  0.45597219  0.08233209    -0.03600
C2018       C  0.51087843  0.47180065  0.07814504    -0.18800
H2019       H  0.58828245  0.58383653  0.07652322     0.10300
H2020       H  0.55546830  0.55358545  0.06842430     0.10400
H2021       H  0.60721540  0.49406011  0.08269604     0.10100
H2022       H  0.63942557  0.52434667  0.09131483     0.11200
H2023       H  0.54063365  0.51095763  0.06405679     0.11300
H2024       H  0.57361667  0.47395196  0.09179765     0.13200
H2025       H  0.55722876  0.43298698  0.09642862     0.09700
H2026       H  0.52214535  0.40550329  0.10358926     0.11800
H2027       H  0.47228322  0.46284576  0.07901552     0.08400
H2028       H  0.50698956  0.49035417  0.07169290     0.11100
C2029       C  0.44963748  0.82381119  0.14112230    -0.03500
C2030       C  0.46772218  0.82274604  0.16003522    -0.06100
C2031       C  0.46684934  0.83898235  0.18037392    -0.21200
C2032       C  0.44806801  0.85682091  0.18249118     0.24600
C2033       C  0.42921903  0.85710573  0.16441329    -0.18700
C2034       C  0.43000745  0.84078089  0.14410809    -0.08700
C2035       C  0.44920946  0.87479451  0.20363184    -0.19000
C2036       C  0.43735678  0.89684076  0.20394093    -0.23800
C2037       C  0.44044312  0.91575107  0.22400971     0.26600
C2038       C  0.42212878  0.93393444  0.22708274    -0.20500
C2039       C  0.42493001  0.95287220  0.24472671    -0.10200
C2040       C  0.44620099  0.95431512  0.25984205    -0.10700
C2041       C  0.46464655  0.93604026  0.25658149    -0.03600
C2042       C  0.46180897  0.91708590  0.23891972    -0.18800
H2043       H  0.48284236  0.80975736  0.15950923     0.10300
H2044       H  0.48136016  0.83798273  0.19426120     0.10400
H2045       H  0.41379704  0.86980586  0.16573921     0.10100
H2046       H  0.41543989  0.84175610  0.13028681     0.11200
H2047       H  0.46125689  0.86999233  0.21903488     0.11300
H2048       H  0.42509586  0.90171264  0.18875339     0.13200
H2049       H  0.40561580  0.93359995  0.21564289     0.09700
H2050       H  0.41047822  0.96670559  0.24642839     0.11800
H2051       H  0.48170311  0.93629325  0.26693770     0.08400
H2052       H  0.47684125  0.90405585  0.23651789     0.11100
C2053       C  0.49257176  0.75948246  0.08578089    -0.03500
C2054       C  0.48630381  0.73522614  0.07877212    -0.06100
C2055       C  0.50468672  0.71732148  0.07530557    -0.21200
C2056       C  0.52976300  0.72325233  0.07883117     0.24600
C2057       C  0.53610740  0.74795055  0.08481553    -0.18700
C2058       C  0.51763915  0.76579995  0.08846491    -0.08700
C2059       C  0.54833532  0.70291663  0.07669766    -0.19000
C2060       C  0.57144559  0.70413780  0.08615563    -0.23800
C2061       C  0.58897931  0.68276941  0.08681790     0.26600
C2062       C  0.60972445  0.68439656  0.10244809    -0.20500
C2063       C  0.62593352  0.66435619  0.10501106    -0.10200
C2064       C  0.62177441  0.64194005  0.09209550    -0.10700
C2065       C  0.60160927  0.64075658  0.07556486    -0.03600
C2066       C  0.58549301  0.66088249  0.07285101    -0.18800
H2067       H  0.46716126  0.72975803  0.07711960     0.10300
H2068       H  0.49920442  0.69853004  0.07060240     0.10400
H2069       H  0.55516370  0.75367484  0.08685629     0.10100
H2070       H  0.52290620  0.78453407  0.09360915     0.11200
H2071       H  0.54177086  0.68563212  0.06871863     0.11300
H2072       H  0.57737547  0.72092279  0.09560825     0.13200
H2073       H  0.61323934  0.70115581  0.11309325     0.09700
H2074       H  0.64171890  0.66661853  0.11717486     0.11800
H2075       H  0.59773629  0.62419712  0.06492309     0.08400
H2076       H  0.57038921  0.65895903  0.05982274     0.11100
C2077       C  0.27714668  0.64189977  0.08872405    -0.03500
C2078       C  0.27115752  0.66628378  0.09595351    -0.06100
C2079       C  0.28790506  0.68569021  0.09244929    -0.21200
C2080       C  0.31116284  0.68137824  0.08168401     0.24600
C2081       C  0.31677676  0.65719391  0.07330041    -0.18700
C2082       C  0.29987797  0.63772614  0.07672997    -0.08700
C2083       C  0.32886918  0.70260577  0.08049159    -0.19000
C2084       C  0.35336555  0.70044697  0.07618239    -0.23800
C2085       C  0.37105856  0.72153987  0.07887447     0.26600
C2086       C  0.39396208  0.72034778  0.06667615    -0.20500
C2087       C  0.41191694  0.73872437  0.07048465    -0.10200
C2088       C  0.40767987  0.75856860  0.08707808    -0.10700
C2089       C  0.38435939  0.76011047  0.09867019    -0.03600
C2090       C  0.36637944  0.74182011  0.09477043    -0.18800
H2091       H  0.25348512  0.67046875  0.10444915     0.10300
H2092       H  0.28282705  0.70412817  0.09874748     0.10400
H2093       H  0.33412957  0.65303068  0.06424130     0.10100
H2094       H  0.30499325  0.61934844  0.07055837     0.11200
H2095       H  0.32136883  0.72083077  0.08467634     0.11300
H2096       H  0.36117789  0.68258004  0.07123265     0.13200
H2097       H  0.39812080  0.70493668  0.05436211     0.09700
H2098       H  0.42925919  0.73677882  0.06079204     0.11800
H2099       H  0.37987935  0.77535016  0.11101457     0.08400
H2100       H  0.34923223  0.74328496  0.10502214     0.11100
C2101       C  0.09302703  0.59901949  0.27034944    -0.03500
C2102       C  0.11213457  0.58123442  0.27169359    -0.06100
C2103       C  0.13187574  0.58173749  0.25490086    -0.21200
C2104       C  0.13310625  0.59978410  0.23620733     0.24600
C2105       C  0.11453633  0.61804283  0.23522912    -0.18700
C2106       C  0.09480094  0.61757917  0.25202017    -0.08700
C2107       C  0.15400750  0.59874307  0.21821712    -0.19000
C2108       C  0.15330542  0.60913147  0.19544027    -0.23800
C2109       C  0.17340212  0.60652071  0.17671914     0.26600
C2110       C  0.17483003  0.62388188  0.15741304    -0.20500
C2111       C  0.19253104  0.62140135  0.13864823    -0.10200
C2112       C  0.20910978  0.60122146  0.13834606    -0.10700
C2113       C  0.20778286  0.58393598  0.15796084    -0.03600
C2114       C  0.19013417  0.58652097  0.17681942    -0.18800
H2115       H  0.11221066  0.56664616  0.28532812     0.10300
H2116       H  0.14607639  0.56760427  0.25625618     0.10400
H2117       H  0.11514862  0.63286473  0.22173930     0.10100
H2118       H  0.08065125  0.63175213  0.25060441     0.11200
H2119       H  0.17015009  0.58815249  0.22376550     0.11300
H2120       H  0.13724859  0.61981746  0.18985363     0.13200
H2121       H  0.16209312  0.63939884  0.15676307     0.09700
H2122       H  0.19302842  0.63512086  0.12396145     0.11800
H2123       H  0.21989092  0.56810983  0.15903284     0.08400
H2124       H  0.18925515  0.57230646  0.19094437     0.11100
C2125       C  0.05058029  0.43713268  0.46540753    -0.03500
C2126       C  0.07277991  0.44738573  0.45654768    -0.06100
C2127       C  0.07255212  0.46578150  0.43839511    -0.21200
C2128       C  0.05018435  0.47475993  0.42871576     0.24600
C2129       C  0.02780380  0.46489757  0.43780640    -0.18700
C2130       C  0.02804451  0.44625448  0.45603215    -0.08700
C2131       C  0.05167837  0.49375320  0.40872789    -0.19000
C2132       C  0.03301139  0.50854993  0.40115054    -0.23800
C2133       C  0.03664441  0.52782023  0.38160824     0.26600
C2134       C  0.01652029  0.53548277  0.36691496    -0.20500
C2135       C  0.01988207  0.55278716  0.34772899    -0.10200
C2136       C  0.04345956  0.56263758  0.34292698    -0.10700
C2137       C  0.06329443  0.55580237  0.35829742    -0.03600
C2138       C  0.05992046  0.53883023  0.37752027    -0.18800
H2139       H  0.09048057  0.44134107  0.46375136     0.10300
H2140       H  0.09007026  0.47309247  0.43189766     0.10400
H2141       H  0.01016548  0.47099636  0.43056797     0.10100
H2142       H  0.01062509  0.43856290  0.46227810     0.11200
H2143       H  0.06963101  0.49568488  0.39991964     0.11300
H2144       H  0.01464976  0.50642182  0.40898052     0.13200
H2145       H  0.99830924  0.52764439  0.36991983     0.09700
H2146       H  0.00425069  0.55790151  0.33621640     0.11800
H2147       H  0.08149235  0.56376795  0.35556122     0.08400
H2148       H  0.07564206  0.53460393  0.38922059     0.11100
C2149       C  0.08936985  0.60421438  0.73697896    -0.03500
C2150       C  0.08922797  0.58414451  0.75371041    -0.06100
C2151       C  0.10754589  0.58167672  0.77190675    -0.21200
C2152       C  0.12672305  0.59911452  0.77397229     0.24600
C2153       C  0.12698260  0.61932238  0.75744158    -0.18700
C2154       C  0.10860611  0.62183181  0.73919754    -0.08700
C2155       C  0.14518466  0.59607626  0.79438803    -0.19000
C2156       C  0.16767918  0.60700144  0.79480511    -0.23800
C2157       C  0.18561359  0.60444903  0.81578820     0.26600
C2158       C  0.20435174  0.62230723  0.81851974    -0.20500
C2159       C  0.22101961  0.62131234  0.83846551    -0.10200
C2160       C  0.21949638  0.60218620  0.85626012    -0.10700
C2161       C  0.20132353  0.58372080  0.85278773    -0.03600
C2162       C  0.18465132  0.58477388  0.83291134    -0.18800
H2163       H  0.07465371  0.57035573  0.75279815     0.10300
H2164       H  0.10666609  0.56604276  0.78450957     0.10400
H2165       H  0.14090032  0.63367600  0.75885812     0.10100
H2166       H  0.10960344  0.63794805  0.72743772     0.11200
H2167       H  0.13970161  0.58425708  0.80971013     0.11300
H2168       H  0.17315136  0.61889161  0.77952561     0.13200
H2169       H  0.20580752  0.63746707  0.80540003     0.09700
H2170       H  0.23465434  0.63585034  0.83969034     0.11800
H2171       H  0.19980943  0.56850930  0.86583929     0.08400
H2172       H  0.17123907  0.56999542  0.83107661     0.11100
C2173       C  0.04178377  0.43205266  0.54970434    -0.03500
C2174       C  0.04427502  0.42486331  0.57467282    -0.06100
C2175       C  0.04118089  0.44217398  0.59386158    -0.21200
C2176       C  0.03584483  0.46712150  0.58856524     0.24600
C2177       C  0.03241677  0.47408909  0.56352360    -0.18700
C2178       C  0.03537062  0.45670009  0.54433381    -0.08700
C2179       C  0.03443186  0.48509556  0.60969251    -0.19000
C2180       C  0.03665083  0.50989305  0.60707477    -0.23800
C2181       C  0.03735119  0.52777523  0.62826165     0.26600
C2182       C  0.03231768  0.55287736  0.62347006    -0.20500
C2183       C  0.03444017  0.57072508  0.64228523    -0.10200
C2184       C  0.04193402  0.56391911  0.66632694    -0.10700
C2185       C  0.04677226  0.53878767  0.67129737    -0.03600
C2186       C  0.04450594  0.52086973  0.65249180    -0.18800
H2187       H  0.04876908  0.40585305  0.57936515     0.10300
H2188       H  0.04358322  0.43615672  0.61292648     0.10400
H2189       H  0.02745159  0.49284266  0.55850456     0.10100
H2190       H  0.03331935  0.46273167  0.52523886     0.11200
H2191       H  0.03247545  0.47733755  0.62818464     0.11300
H2192       H  0.03848486  0.51778110  0.58864590     0.13200
H2193       H  0.02705119  0.55877823  0.60495440     0.09700
H2194       H  0.03107792  0.58999529  0.63771941     0.11800
H2195       H  0.05256714  0.53301497  0.68968231     0.08400
H2196       H  0.04922328  0.50188467  0.65689574     0.11100
C2197       C  0.21864146  0.95943307  0.49725751    -0.03500
C2198       C  0.20701125  0.95419386  0.47435410    -0.06100
C2199       C  0.18947422  0.93523736  0.47222281    -0.21200
C2200       C  0.18225313  0.92144650  0.49306621     0.24600
C2201       C  0.19355749  0.92667280  0.51611818    -0.18700
C2202       C  0.21137065  0.94552074  0.51821750    -0.08700
C2203       C  0.16292906  0.90191133  0.48978477    -0.19000
C2204       C  0.14844963  0.89348612  0.50837259    -0.23800
C2205       C  0.12802108  0.87514943  0.50478081     0.26600
C2206       C  0.10937483  0.87383373  0.52284953    -0.20500
C2207       C  0.08977890  0.85708738  0.52032759    -0.10200
C2208       C  0.08821852  0.84089132  0.49973061    -0.10700
C2209       C  0.10715244  0.84200741  0.48172010    -0.03600
C2210       C  0.12681439  0.85883807  0.48426531    -0.18800
H2211       H  0.21124862  0.96506708  0.45799282     0.10300
H2212       H  0.18102793  0.93176479  0.45425335     0.10400
H2213       H  0.18880537  0.91626997  0.53261175     0.10100
H2214       H  0.21872268  0.94947397  0.53649182     0.11200
H2215       H  0.15949018  0.89558181  0.47091510     0.11300
H2216       H  0.15049396  0.90142916  0.52684084     0.13200
H2217       H  0.10982174  0.88600266  0.53893920     0.09700
H2218       H  0.07561812  0.85679138  0.53458306     0.11800
H2219       H  0.10717279  0.83009862  0.46557005     0.08400
H2220       H  0.14114908  0.85867628  0.47024427     0.11100
C2221       C  0.04831780  0.64526962  0.66129727    -0.03500
C2222       C  0.07006802  0.65158176  0.64849997    -0.06100
C2223       C  0.06929421  0.66763078  0.62821624    -0.21200
C2224       C  0.04684475  0.67801368  0.62029437     0.24600
C2225       C  0.02488411  0.67126607  0.63265843    -0.18700
C2226       C  0.02564641  0.65492836  0.65293093    -0.08700
C2227       C  0.04762200  0.69581253  0.59923037    -0.19000
C2228       C  0.03049925  0.71349571  0.59491034    -0.23800
C2229       C  0.03407882  0.73316114  0.57582231     0.26600
C2230       C  0.01341401  0.74479006  0.56509508    -0.20500
C2231       C  0.01645076  0.76369078  0.54745336    -0.10200
C2232       C  0.04025777  0.77154727  0.54044491    -0.10700
C2233       C  0.06087478  0.76006824  0.55147285    -0.03600
C2234       C  0.05785473  0.74132224  0.56903379    -0.18800
H2235       H  0.08774852  0.64387792  0.65397035     0.10300
H2236       H  0.08644620  0.67225456  0.61888115     0.10400
H2237       H  0.00713546  0.67836918  0.62671085     0.10100
H2238       H  0.00857060  0.65021579  0.66232626     0.11200
H2239       H  0.06401303  0.69511567  0.58759245     0.11300
H2240       H  0.01369853  0.71414789  0.60592457     0.13200
H2241       H  0.99488836  0.73915661  0.57030046     0.09700
H2242       H  0.00015969  0.77234810  0.53961110     0.11800
H2243       H  0.07951787  0.76527732  0.54633724     0.08400
H2244       H  0.07429127  0.73361260  0.57750350     0.11100
C2245       C  0.03891455  0.77021833  0.45738996    -0.03500
C2246       C  0.02725507  0.74803247  0.46455725    -0.06100
C2247       C  0.02396027  0.72865220  0.44749083    -0.21200
C2248       C  0.03213562  0.73092556  0.42281956     0.24600
C2249       C  0.04347840  0.75330284  0.41549996    -0.18700
C2250       C  0.04673441  0.77271586  0.43258093    -0.08700
C2251       C  0.03047571  0.70883581  0.40611484    -0.19000
C2252       C  0.03205318  0.70996049  0.38109783    -0.23800
C2253       C  0.03393964  0.68773547  0.36459348     0.26600
C2254       C  0.04374830  0.69091267  0.34063250    -0.20500
C2255       C  0.04759183  0.67054243  0.32495157    -0.10200
C2256       C  0.04146561  0.64645581  0.33276395    -0.10700
C2257       C  0.03071069  0.64326731  0.35631199    -0.03600
C2258       C  0.02694896  0.66367184  0.37209671    -0.18800
H2259       H  0.02145957  0.74517497  0.48360320     0.10300
H2260       H  0.01544549  0.71156652  0.45375425     0.10400
H2261       H  0.05069222  0.75572106  0.39691584     0.10100
H2262       H  0.05558477  0.78962358  0.42636257     0.11200
H2263       H  0.02880267  0.69095261  0.41514411     0.11300
H2264       H  0.03346115  0.72793355  0.37217825     0.13200
H2265       H  0.04904231  0.70920259  0.33420655     0.09700
H2266       H  0.05545147  0.67365716  0.30669740     0.11800
H2267       H  0.02583073  0.62491440  0.36284589     0.08400
H2268       H  0.01863120  0.66036768  0.39005986     0.11100
C2269       C  0.44853085  0.37013570  0.14743315    -0.03500
C2270       C  0.46635742  0.37103787  0.16661854    -0.06100
C2271       C  0.46555081  0.35423949  0.18638360    -0.21200
C2272       C  0.44706460  0.33602915  0.18764246     0.24600
C2273       C  0.42830958  0.33603634  0.16946679    -0.18700
C2274       C  0.42898623  0.35297395  0.14977944    -0.08700
C2275       C  0.44816238  0.31751594  0.20816312    -0.19000
C2276       C  0.43741841  0.29493609  0.20698639    -0.23800
C2277       C  0.43976319  0.27576452  0.22676777     0.26600
C2278       C  0.42183101  0.25701817  0.22808196    -0.20500
C2279       C  0.42373057  0.23808287  0.24568486    -0.10200
C2280       C  0.44379891  0.23706843  0.26241567    -0.10700
C2281       C  0.46189791  0.25590114  0.26095536    -0.03600
C2282       C  0.45990211  0.27495418  0.24336806    -0.18800
H2283       H  0.48109692  0.38448888  0.16682792     0.10300
H2284       H  0.47985894  0.35512207  0.20049572     0.10400
H2285       H  0.41303352  0.32310352  0.17031253     0.10100
H2286       H  0.41446399  0.35226513  0.13589050     0.11200
H2287       H  0.45912727  0.32244157  0.22436190     0.11300
H2288       H  0.42641415  0.28997254  0.19083298     0.13200
H2289       H  0.40624542  0.25699075  0.21538854     0.09700
H2290       H  0.40953626  0.22388088  0.24607702     0.11800
H2291       H  0.47795702  0.25608746  0.27283149     0.08400
H2292       H  0.47459287  0.28855435  0.24244311     0.11100
C2293       C  0.21632093  0.24097398  0.50126673    -0.03500
C2294       C  0.20036049  0.24175866  0.48055150    -0.06100
C2295       C  0.18203740  0.25994269  0.47858315    -0.21200
C2296       C  0.17925526  0.27817316  0.49707059     0.24600
C2297       C  0.19558928  0.27801385  0.51745802    -0.18700
C2298       C  0.21389554  0.25974477  0.51950266    -0.08700
C2299       C  0.15802401  0.29570275  0.49517881    -0.19000
C2300       C  0.15569022  0.31677907  0.50862734    -0.23800
C2301       C  0.13323518  0.33275662  0.50757558     0.26600
C2302       C  0.13512386  0.35804958  0.51358518    -0.20500
C2303       C  0.11420138  0.37338296  0.51310740    -0.10200
C2304       C  0.09065138  0.36372939  0.50723420    -0.10700
C2305       C  0.08894718  0.33825948  0.50120906    -0.03600
C2306       C  0.10984839  0.32302315  0.50157793    -0.18800
H2307       H  0.20163837  0.22771424  0.46612884     0.10300
H2308       H  0.16969162  0.25949229  0.46269423     0.10400
H2309       H  0.19384690  0.29135441  0.53242402     0.10100
H2310       H  0.22542330  0.26040681  0.53583131     0.11200
H2311       H  0.14371262  0.29096777  0.48179506     0.11300
H2312       H  0.17080366  0.32303111  0.52035980     0.13200
H2313       H  0.15289729  0.36603792  0.51840862     0.09700
H2314       H  0.11639275  0.39292093  0.51740576     0.11800
H2315       H  0.07180244  0.32967028  0.49569552     0.08400
H2316       H  0.10744061  0.30349575  0.49747123     0.11100
C2317       C  0.28613525  0.19125861  0.46234250    -0.03500
C2318       C  0.30789188  0.17806694  0.46782605    -0.06100
C2319       C  0.32617508  0.17453438  0.44973822    -0.21200
C2320       C  0.32302336  0.18366791  0.42553291     0.24600
C2321       C  0.30100565  0.19638407  0.41978288    -0.18700
C2322       C  0.28279126  0.20000730  0.43791371    -0.08700
C2323       C  0.34373168  0.18110212  0.40742106    -0.19000
C2324       C  0.34071718  0.18243777  0.38254899    -0.23800
C2325       C  0.36155690  0.18309586  0.36445522     0.26600
C2326       C  0.35734250  0.19379214  0.34107539    -0.20500
C2327       C  0.37659872  0.19638948  0.32395350    -0.10200
C2328       C  0.40065000  0.18821872  0.32971075    -0.10700
C2329       C  0.40459709  0.17640506  0.35264322    -0.03600
C2330       C  0.38532092  0.17385758  0.36986233    -0.18800
H2331       H  0.31127074  0.17094165  0.48621125     0.10300
H2332       H  0.34298432  0.16480092  0.45475801     0.10400
H2333       H  0.29797670  0.20430986  0.40158069     0.10100
H2334       H  0.26611094  0.20980112  0.43269448     0.11200
H2335       H  0.36212562  0.17872912  0.41513126     0.11300
H2336       H  0.32224019  0.18458226  0.37495920     0.13200
H2337       H  0.33915267  0.20072164  0.33621957     0.09700
H2338       H  0.37257752  0.20490948  0.30619706     0.11800
H2339       H  0.42269065  0.16971463  0.35771756     0.08400
H2340       H  0.38921224  0.16471279  0.38730470     0.11100
C2341       C  0.44687369  0.36037183  0.86421734    -0.03500
C2342       C  0.42532304  0.34575408  0.86214491    -0.06100
C2343       C  0.42324273  0.32725912  0.84391165    -0.21200
C2344       C  0.44258741  0.32282245  0.82708453     0.24600
C2345       C  0.46418020  0.33731876  0.82906277    -0.18700
C2346       C  0.46626897  0.35583448  0.84726159    -0.08700
C2347       C  0.44015798  0.30203669  0.80880003    -0.19000
C2348       C  0.45388273  0.30025296  0.78789001    -0.23800
C2349       C  0.45320072  0.27889425  0.77014242     0.26600
C2350       C  0.47262474  0.27651969  0.75299965    -0.20500
C2351       C  0.47351150  0.25663987  0.73623907    -0.10200
C2352       C  0.45475667  0.23843899  0.73595974    -0.10700
C2353       C  0.43491465  0.24125203  0.75277679    -0.03600
C2354       C  0.43410288  0.26112812  0.76964590    -0.18800
H2355       H  0.41014192  0.34842145  0.87503204     0.10300
H2356       H  0.40649342  0.31622854  0.84308574     0.10400
H2357       H  0.47998986  0.33396724  0.81721254     0.10100
H2358       H  0.48355532  0.36573949  0.84813777     0.11200
H2359       H  0.42670391  0.28775393  0.81307774     0.11300
H2360       H  0.46692142  0.31492676  0.78359444     0.13200
H2361       H  0.48752399  0.28998974  0.75279630     0.09700
H2362       H  0.48921425  0.25586673  0.72395988     0.11800
H2363       H  0.42005061  0.22775517  0.75301900     0.08400
H2364       H  0.41839613  0.26244254  0.78200264     0.11100
C2365       C  0.41098127  0.18730370  0.66932814    -0.03500
C2366       C  0.41409248  0.16991440  0.64992802    -0.06100
C2367       C  0.39626770  0.16721463  0.63126399    -0.21200
C2368       C  0.37449007  0.18129068  0.63170226     0.24600
C2369       C  0.37059771  0.19773258  0.65171425    -0.18700
C2370       C  0.38849171  0.20053506  0.67032877    -0.08700
C2371       C  0.35727835  0.17961407  0.61012737    -0.19000
C2372       C  0.33323581  0.18616728  0.61128479    -0.23800
C2373       C  0.31613820  0.18717295  0.58951012     0.26600
C2374       C  0.29264229  0.19766938  0.59311686    -0.20500
C2375       C  0.27622269  0.20043006  0.57325719    -0.10200
C2376       C  0.28284499  0.19276630  0.54913281    -0.10700
C2377       C  0.30597312  0.18146814  0.54560568    -0.03600
C2378       C  0.32250161  0.17872209  0.56548548    -0.18800
H2379       H  0.43042294  0.15860949  0.64843304     0.10300
H2380       H  0.39969862  0.15427413  0.61617348     0.10400
H2381       H  0.35425408  0.20925895  0.65269467     0.10100
H2382       H  0.38460028  0.21342978  0.68526227     0.11200
H2383       H  0.36512738  0.17302640  0.59279504     0.11300
H2384       H  0.32558516  0.19177653  0.62909389     0.13200
H2385       H  0.28703521  0.20413598  0.61137670     0.09700
H2386       H  0.25828354  0.20861430  0.57686730     0.11800
H2387       H  0.31167398  0.17530268  0.52739939     0.08400
H2388       H  0.34013508  0.17012671  0.56165792     0.11100
C2389       C  0.68233935  0.24508629  0.49534345    -0.03500
C2390       C  0.69781891  0.24764628  0.47440837    -0.06100
C2391       C  0.71563398  0.26646744  0.47326808    -0.21200
C2392       C  0.71872465  0.28314470  0.49312837     0.24600
C2393       C  0.70270413  0.28133270  0.51364707    -0.18700
C2394       C  0.68485216  0.26257726  0.51479126    -0.08700
C2395       C  0.73871358  0.30216133  0.49173299    -0.19000
C2396       C  0.74901983  0.31280341  0.51202210    -0.23800
C2397       C  0.76931369  0.33149984  0.51117564     0.26600
C2398       C  0.77304084  0.34681911  0.53200169    -0.20500
C2399       C  0.79211245  0.36437895  0.53247246    -0.10200
C2400       C  0.80825679  0.36701962  0.51204023    -0.10700
C2401       C  0.80467920  0.35125107  0.49134112    -0.03600
C2402       C  0.78550915  0.33377694  0.49084598    -0.18800
H2403       H  0.69643408  0.23463899  0.45905085     0.10300
H2404       H  0.72748080  0.26759601  0.45705683     0.10400
H2405       H  0.70371454  0.29441901  0.52891530     0.10100
H2406       H  0.67358989  0.26201573  0.53128260     0.11200
H2407       H  0.74547370  0.30691484  0.47335963     0.11300
H2408       H  0.74233385  0.30780615  0.53035681     0.13200
H2409       H  0.76104767  0.34523580  0.54807084     0.09700
H2410       H  0.79396574  0.37538065  0.54912988     0.11800
H2411       H  0.81694141  0.35242295  0.47544949     0.08400
H2412       H  0.78388898  0.32181161  0.47473633     0.11100
C2413       C  0.61708434  0.19359395  0.54107384    -0.03500
C2414       C  0.62564126  0.19778332  0.56542676    -0.06100
C2415       C  0.61033608  0.19336164  0.58585423    -0.21200
C2416       C  0.58601428  0.18485642  0.58251057     0.24600
C2417       C  0.57776272  0.17964990  0.55811948    -0.18700
C2418       C  0.59321837  0.18394517  0.53763762    -0.08700
C2419       C  0.57004207  0.18222728  0.60497442    -0.19000
C2420       C  0.54511977  0.18145348  0.60422463    -0.23800
C2421       C  0.52894769  0.18172345  0.62668284     0.26600
C2422       C  0.50409948  0.17468103  0.62390379    -0.20500
C2423       C  0.48745954  0.17697425  0.64366221    -0.10200
C2424       C  0.49515371  0.18652968  0.66670717    -0.10700
C2425       C  0.52018695  0.19298835  0.66980729    -0.03600
C2426       C  0.53692372  0.19066176  0.65003725    -0.18800
H2427       H  0.64420913  0.20463300  0.56869812     0.10300
H2428       H  0.61737049  0.19719289  0.60435969     0.10400
H2429       H  0.55949454  0.17226585  0.55461908     0.10100
H2430       H  0.58624441  0.18034848  0.51911693     0.11200
H2431       H  0.57933933  0.18217061  0.62286104     0.11300
H2432       H  0.53575478  0.18136513  0.58638593     0.13200
H2433       H  0.49734477  0.16796212  0.60612560     0.09700
H2434       H  0.46833239  0.17238646  0.64041221     0.11800
H2435       H  0.52674249  0.20032116  0.68740451     0.08400
H2436       H  0.55572286  0.19686201  0.65297477     0.11100
C2437       C  0.61510601  0.19501583  0.45278277    -0.03500
C2438       C  0.62131730  0.20203842  0.42840661    -0.06100
C2439       C  0.60480234  0.19816753  0.40878483    -0.21200
C2440       C  0.58155821  0.18734155  0.41294268     0.24600
C2441       C  0.57570390  0.17927483  0.43716676    -0.18700
C2442       C  0.59237802  0.18303188  0.45683656    -0.08700
C2443       C  0.56413287  0.18550563  0.39149514    -0.19000
C2444       C  0.53948089  0.18226630  0.39363099    -0.23800
C2445       C  0.52213103  0.18376516  0.37212703     0.26600
C2446       C  0.49897087  0.17216213  0.37381635    -0.20500
C2447       C  0.48143530  0.17471186  0.35482000    -0.10200
C2448       C  0.48639476  0.18931157  0.33374089    -0.10700
C2449       C  0.50994518  0.20038842  0.33180913    -0.03600
C2450       C  0.52747486  0.19783857  0.35078659    -0.18800
H2451       H  0.63899168  0.21061874  0.42443631     0.10300
H2452       H  0.61002606  0.20422560  0.39031343     0.10400
H2453       H  0.55836158  0.17013126  0.44115114     0.10100
H2454       H  0.58713700  0.17713953  0.47529397     0.11200
H2455       H  0.57199791  0.18824892  0.37313630     0.11300
H2456       H  0.53133726  0.17898749  0.41174954     0.13200
H2457       H  0.49429574  0.16128663  0.39007077     0.09700
H2458       H  0.46383297  0.16567365  0.35721376     0.11800
H2459       H  0.51500597  0.21120158  0.31568307     0.08400
H2460       H  0.54485490  0.20760032  0.34889873     0.11100
loop_ 
_geom_bond_atom_site_label_1 
_geom_bond_atom_site_label_2 
_geom_bond_distance 
_geom_bond_site_symmetry_2 
_ccdc_geom_bond_type 
C1            C2   1.535       .  S
C1            C7   1.533       .  S
C1            C5   1.542       .  S
C1         C2389   1.532       .  S
C2            H9   1.086       .  S
C2            C3   1.370       .  D
C3            C4   1.545       .  S
C3         C2437   1.490       .  S
C4            C8   1.538       .  S
C4            C6   1.541       .  S
C4           H10   1.110       .  S
C5           H11   1.080       .  S
C5            C6   1.367       .  D
C6         C2413   1.486       .  S
C7           H12   1.087       .  S
C7            C8   1.365       .  D
C8          C682   1.473       .  S
C13          C14   1.544       .  S
C13          C19   1.532       .  S
C13          C17   1.538       .  S
C13        C2352   1.534       .  S
C14          H21   1.080       .  S
C14          C15   1.367       .  D
C15          C16   1.542       .  S
C15        C2424   1.490       .  S
C16          C20   1.537       .  S
C16          C18   1.547       .  S
C16          H22   1.106       .  S
C17          H23   1.084       .  S
C17          C18   1.375       .  D
C18        C2365   1.503       .  S
C19          H24   1.087       .  S
C19          C20   1.362       .  D
C20         C724   1.475       .  S
C25          C26   1.540       .  S
C25          C31   1.532       .  S
C25          C29   1.536       .  S
C25        C2293   1.532       .  S
C26          H33   1.080       .  S
C26          C27   1.368       .  D
C27          C28   1.545       .  S
C27        C2376   1.490       .  S
C28          C32   1.540       .  S
C28          C30   1.548       .  S
C28          H34   1.109       .  S
C29          H35   1.085       .  S
C29          C30   1.372       .  D
C30        C2317   1.496       .  S
C31          H36   1.087       .  S
C31          C32   1.363       .  D
C32         C194   1.478       .  S
C37          C38   1.533       .  S
C37          C43   1.532       .  S
C37          C41   1.543       .  S
C37        C2280   1.533       .  S
C38          H45   1.086       .  S
C38          C39   1.368       .  D
C39          C40   1.547       .  S
C39        C2328   1.493       .  S
C40          C44   1.540       .  S
C40          C42   1.548       .  S
C40          H46   1.107       .  S
C41          H47   1.079       .  S
C41          C42   1.374       .  D
C42        C2448   1.500       .  S
C43          H48   1.087       .  S
C43          C44   1.363       .  D
C44         C210   1.480       .  S
C49          C50   1.535       .  S
C49          C55   1.531       .  S
C49          C53   1.548       .  S
C49        C2208   1.532       .  S
C50          H57   1.086       .  S
C50          C51   1.369       .  D
C51          C52   1.542       .  S
C51        C2232   1.491       .  S
C52          C56   1.538       .  S
C52          C54   1.541       .  S
C52          H58   1.108       .  S
C53          H59   1.081       .  S
C53          C54   1.373       .  D
C54        C2245   1.491       .  S
C55          H60   1.087       .  S
C55          C56   1.363       .  D
C56         C663   1.476   1_455  S
C61          C62   1.539       .  S
C61          C67   1.532       .  S
C61          C65   1.544       .  S
C61        C2149   1.533       .  S
C62          H69   1.086       .  S
C62          C63   1.369       .  D
C63          C64   1.541       .  S
C63        C2184   1.486       .  S
C64          C68   1.539       .  S
C64          C66   1.539       .  S
C64          H70   1.110       .  S
C65          H71   1.081       .  S
C65          C66   1.370       .  D
C66        C2221   1.487       .  S
C67          H72   1.087       .  S
C67          C68   1.365       .  D
C68         C671   1.480   1_455  S
C73          C74   1.532       .  S
C73          C79   1.538       .  S
C73          C77   1.538       .  S
C73        C2304   1.532       .  S
C74          H81   1.086       .  S
C74          C75   1.369       .  D
C75          C76   1.543       .  S
C75        C2125   1.490       .  S
C76          C80   1.538       .  S
C76          C78   1.542       .  S
C76          H82   1.110       .  S
C77          H83   1.086       .  S
C77          C78   1.369       .  D
C78        C2173   1.484       .  S
C79          H84   1.081       .  S
C79          C80   1.365       .  D
C80         C633   1.478   1_455  S
C85          C86   1.536       .  S
C85          C91   1.534       .  S
C85          C89   1.543       .  S
C85        C2101   1.530       .  S
C86          H93   1.086       .  S
C86          C87   1.368       .  D
C87          C88   1.542       .  S
C87        C2256   1.486       .  S
C88          C92   1.539       .  S
C88          C90   1.538       .  S
C88          H94   1.110       .  S
C89          H95   1.081       .  S
C89          C90   1.368       .  D
C90        C2136   1.484       .  S
C91          H96   1.087       .  S
C91          C92   1.365       .  D
C92         C646   1.476       .  S
C97          C98   1.538       .  S
C97         C103   1.535       .  S
C97         C101   1.543       .  S
C97        C2029   1.532       .  S
C98         H105   1.085       .  S
C98          C99   1.374       .  D
C99         C100   1.546       .  S
C99        C2088   1.500       .  S
C100        C104   1.540       .  S
C100        C102   1.539       .  S
C100        H106   1.108       .  S
C101        H107   1.081       .  S
C101        C102   1.364       .  D
C102       C2053   1.481       .  S
C103        H108   1.087       .  S
C103        C104   1.364       .  D
C104        C711   1.477       .  S
C109        C110   1.537       .  S
C109        C115   1.533       .  S
C109        C113   1.542       .  S
C109       C1981   1.529       .  S
C110        H117   1.085       .  S
C110        C111   1.372       .  D
C111        C112   1.546       .  S
C111       C2064   1.497       .  S
C112        C116   1.537       .  S
C112        C114   1.538       .  S
C112        H118   1.108       .  S
C113        H119   1.081       .  S
C113        C114   1.366       .  D
C114       C2005   1.482       .  S
C115        H120   1.087       .  S
C115        C116   1.363       .  D
C116        C697   1.473       .  S
C121        C122   1.540       .  S
C121        C127   1.533       .  S
C121        C125   1.534       .  S
C121       C2112   1.529       .  S
C122        H129   1.081       .  S
C122        C123   1.367       .  D
C123        C124   1.543       .  S
C123       C1968   1.486       .  S
C124        C128   1.540       .  S
C124        C126   1.545       .  S
C124        H130   1.109       .  S
C125        H131   1.086       .  S
C125        C126   1.369       .  D
C126       C2077   1.493       .  S
C127        H132   1.087       .  S
C127        C128   1.364       .  D
C128        C364   1.475       .  S
C133        C134   1.542       .  S
C133        C139   1.537       .  S
C133        C137   1.535       .  S
C133       C2269   1.533       .  S
C134        H141   1.081       .  S
C134        C135   1.366       .  D
C135        C136   1.540       .  S
C135       C2016   1.486       .  S
C136        C140   1.537       .  S
C136        C138   1.547       .  S
C136        H142   1.108       .  S
C137        H143   1.085       .  S
C137        C138   1.372       .  D
C138       C1957   1.496       .  S
C139        H144   1.086       .  S
C139        C140   1.365       .  D
C140        C377   1.477       .  S
C145        C146   1.537       .  S
C145        C151   1.529   1_565  S
C145        C149   1.543       .  S
C145       C1885   1.531       .  S
C146        H153   1.084       .  S
C146        C147   1.374   1_565  D
C147        C148   1.549       .  S
C147       C1920   1.501       .  S
C148        C152   1.538       .  S
C148        C150   1.545       .  S
C148        H154   1.107       .  S
C149        H155   1.081       .  S
C149        C150   1.369   1_565  D
C150       C1933   1.492       .  S
C151        H156   1.087       .  S
C151        C152   1.360       .  D
C152        C684   1.475       .  S
C157        C158   1.540       .  S
C157        C163   1.533   1_565  S
C157        C161   1.533       .  S
C157       C1837   1.527       .  S
C158        H165   1.081       .  S
C158        C159   1.367   1_565  D
C159        C160   1.544       .  S
C159       C1872   1.486       .  S
C160        C164   1.543       .  S
C160        C162   1.546       .  S
C160        H166   1.110       .  S
C161        H167   1.086       .  S
C161        C162   1.368   1_565  D
C162       C1909   1.490       .  S
C163        H168   1.087       .  S
C163        C164   1.364       .  D
C164        C728   1.478       .  S
C169        C170   1.541       .  S
C169        C175   1.534   1_565  S
C169        C173   1.535       .  S
C169       C2040   1.533       .  S
C170        H177   1.080       .  S
C170        C171   1.369       .  D
C171        C172   1.545   1_565  S
C171       C1944   1.491   1_565  S
C172        C176   1.540       .  S
C172        C174   1.546   1_545  S
C172        H178   1.110       .  S
C173        H179   1.086       .  S
C173        C174   1.368       .  D
C174       C1813   1.490   1_565  S
C175        H180   1.087       .  S
C175        C176   1.366       .  D
C176        C214   1.479       .  S
C181        C182   1.537       .  S
C181        C187   1.529   1_565  S
C181        C185   1.544       .  S
C181       C2197   1.532       .  S
C182        H189   1.085       .  S
C182        C183   1.368   1_565  D
C183        C184   1.546       .  S
C183       C1824   1.493       .  S
C184        C188   1.540       .  S
C184        C186   1.552       .  S
C184        H190   1.105       .  S
C185        H191   1.080       .  S
C185        C186   1.377   1_565  D
C186       C1861   1.507       .  S
C187        H192   1.087       .  S
C187        C188   1.362       .  D
C188        C196   1.480       .  S
O193        C196   1.267       .  A
O193       Cd198   2.501       .  S
C194        O203   1.264       .  A
C194        O199   1.267       .  A
O195        C201   1.267       .  A
O195       Cd198   2.497       .  S
C196        O204   1.265       .  A
C197        C504   1.478       .  S
C197        O202   1.267       .  A
C197        O200   1.265       .  A
Cd198       O205   2.440       .  S
Cd198       O204   2.444       .  S
Cd198       O203   2.424       .  S
Cd198       O199   2.506       .  S
Cd198       O202   2.494       .  S
Cd198       O200   2.443       .  S
C201        C540   1.478       .  S
C201        O205   1.265       .  A
O206        C209   1.268       .  A
O206       Cd211   2.501       .  S
C207        C226   1.477       .  S
C207        O216   1.265       .  A
C207        O212   1.269       .  A
O208        C214   1.269       .  A
O208       Cd211   2.503       .  S
C209        C286   1.479       .  S
C209        O217   1.266       .  A
C210        O215   1.269       .  A
C210        O213   1.265       .  A
Cd211       O218   2.431       .  S
Cd211       O217   2.432       .  S
Cd211       O216   2.421       .  S
Cd211       O212   2.503       .  S
Cd211       O215   2.504       .  S
Cd211       O213   2.431       .  S
C214        O218   1.265       .  A
C219        C220   1.546       .  S
C219        C225   1.530       .  S
C219        C223   1.534       .  S
C219       C1741   1.529       .  S
C220        H227   1.081       .  S
C220        C221   1.369       .  D
C221        C222   1.538       .  S
C221       C1765   1.482       .  S
C222        C226   1.541       .  S
C222        C224   1.542       .  S
C222        H228   1.110       .  S
C223        H229   1.086       .  S
C223        C224   1.368       .  D
C224       C1789   1.489       .  S
C225        H230   1.087       .  S
C225        C226   1.365       .  D
C231        C232   1.540   1_554  S
C231        C237   1.529       .  S
C231        C235   1.540       .  S
C231       C1704   1.528       .  S
C232        H239   1.084       .  S
C232        C233   1.373       .  D
C233        C234   1.549   1_556  S
C233       C1717   1.501       .  S
C234        C238   1.541       .  S
C234        C236   1.541       .  S
C234        H240   1.108       .  S
C235        H241   1.085       .  S
C235        C236   1.365       .  D
C236       C1776   1.481       .  S
C237        H242   1.087       .  S
C237        C238   1.364       .  D
C238        C384   1.478       .  S
C243        C244   1.545   1_556  S
C243        C249   1.533       .  S
C243        C247   1.536       .  S
C243       C1645   1.533       .  S
C244        H251   1.080       .  S
C244        C245   1.372       .  D
C245        C246   1.542   1_554  S
C245       C1800   1.492       .  S
C246        C250   1.538       .  S
C246        C248   1.542       .  S
C246        H252   1.109       .  S
C247        H253   1.086       .  S
C247        C248   1.368       .  D
C248       C1669   1.487       .  S
C249        H254   1.087       .  S
C249        C250   1.364       .  D
C250        C708   1.477       .  S
C255        C256   1.545       .  S
C255        C261   1.533       .  S
C255        C259   1.534       .  S
C255       C1632   1.535       .  S
C256        H263   1.080       .  S
C256        C257   1.374       .  D
C257        C258   1.547       .  S
C257       C1680   1.498       .  S
C258        C262   1.539       .  S
C258        C260   1.548       .  S
C258        H264   1.108       .  S
C259        H265   1.086       .  S
C259        C260   1.369       .  D
C260       C1728   1.496       .  S
C261        H266   1.087       .  S
C261        C262   1.364       .  D
C262        C723   1.479       .  S
C267        C268   1.536       .  S
C267        C273   1.531       .  S
C267        C271   1.546   1_554  S
C267       C1549   1.533       .  S
C268        H275   1.086       .  S
C268        C269   1.368       .  D
C269        C270   1.540       .  S
C269       C1584   1.485       .  S
C270        C274   1.539       .  S
C270        C272   1.540   1_554  S
C270        H276   1.109       .  S
C271        H277   1.081       .  S
C271        C272   1.372       .  D
C272       C1608   1.489       .  S
C273        H278   1.087       .  S
C273        C274   1.364       .  D
C274        C380   1.477       .  S
C279        C280   1.536       .  S
C279        C285   1.533       .  S
C279        C283   1.543       .  S
C279       C1501   1.531       .  S
C280        H287   1.086       .  S
C280        C281   1.366       .  D
C281        C282   1.540       .  S
C281       C1525   1.484       .  S
C282        C286   1.541       .  S
C282        C284   1.543       .  S
C282        H288   1.109       .  S
C283        H289   1.081       .  S
C283        C284   1.372       .  D
C284       C1573   1.491       .  S
C285        H290   1.087       .  S
C285        C286   1.365       .  D
C291        C292   1.540       .  S
C291        C297   1.527       .  S
C291        C295   1.536       .  S
C291       C1464   1.528       .  S
C292        H299   1.082       .  S
C292        C293   1.366       .  D
C293        C294   1.541       .  S
C293       C1597   1.481       .  S
C294        C298   1.543       .  S
C294        C296   1.544       .  S
C294        H300   1.111       .  S
C295        H301   1.086       .  S
C295        C296   1.370       .  D
C296       C1477   1.484       .  S
C297        H302   1.087       .  S
C297        C298   1.365       .  D
C298        C721   1.479       .  S
C303        C304   1.536   1_554  S
C303        C309   1.533       .  S
C303        C307   1.546       .  S
C303       C1429   1.532       .  S
C304        H311   1.086       .  S
C304        C305   1.368       .  D
C305        C306   1.541       .  S
C305       C1488   1.489       .  S
C306        C310   1.539   1_556  S
C306        C308   1.541   1_556  S
C306        H312   1.109       .  S
C307        H313   1.081       .  S
C307        C308   1.371       .  D
C308       C1536   1.488       .  S
C309        H314   1.087       .  S
C309        C310   1.364       .  D
C310        C710   1.479       .  S
C315        C316   1.535       .  S
C315        C321   1.531       .  S
C315        C319   1.542       .  S
C315       C2341   1.532       .  S
C316        H323   1.085       .  S
C316        C317   1.371       .  D
C317        C318   1.548       .  S
C317       C1405   1.494       .  S
C318        C322   1.540       .  S
C318        C320   1.545       .  S
C318        H324   1.109       .  S
C319        H325   1.081       .  S
C319        C320   1.368       .  D
C320       C1381   1.491       .  S
C321        H326   1.087       .  S
C321        C322   1.364       .  D
C322        C379   1.478       .  S
C327        C328   1.544       .  S
C327        C333   1.534       .  S
C327        C331   1.535       .  S
C327       C2160   1.532       .  S
C328        H335   1.081       .  S
C328        C329   1.370       .  D
C329        C330   1.542       .  S
C329       C1357   1.491       .  S
C330        C334   1.536       .  S
C330        C332   1.546       .  S
C330        H336   1.108       .  S
C331        H337   1.085       .  S
C331        C332   1.370       .  D
C332       C1416   1.494       .  S
C333        H338   1.087       .  S
C333        C334   1.363       .  D
C334        C366   1.474       .  S
C339        C340   1.533       .  S
C339        C345   1.534       .  S
C339        C343   1.541       .  S
C339       C1848   1.527       .  S
C340        H347   1.086       .  S
C340        C341   1.367       .  D
C341        C342   1.544       .  S
C341       C1333   1.489       .  S
C342        C346   1.538       .  S
C342        C344   1.540       .  S
C342        H348   1.110       .  S
C343        H349   1.081       .  S
C343        C344   1.367       .  D
C344       C1368   1.484       .  S
C345        H350   1.087       .  S
C345        C346   1.365       .  D
C346        C715   1.473       .  S
C351        C352   1.544       .  S
C351        C357   1.532       .  S
C351        C355   1.539       .  S
C351       C1309   1.534       .  S
C352        H359   1.080       .  S
C352        C353   1.368       .  D
C353        C354   1.543       .  S
C353       C1392   1.492       .  S
C354        C358   1.537       .  S
C354        C356   1.549       .  S
C354        H360   1.105       .  S
C355        H361   1.083       .  S
C355        C356   1.376       .  D
C356       C1344   1.505       .  S
C357        H362   1.087       .  S
C357        C358   1.361       .  D
C358        C695   1.477       .  S
O363        C366   1.267       .  A
O363       Cd368   2.480       .  S
C364        O373   1.265       .  A
C364        O369   1.267       .  A
O365        C371   1.268       .  A
O365       Cd368   2.477       .  S
C366        O374   1.265       .  A
C367        C444   1.475       .  S
C367        O372   1.267       .  A
C367        O370   1.264       .  A
Cd368       O375   2.429       .  S
Cd368       O374   2.430       .  S
Cd368       O373   2.425   1_556  S
Cd368       O369   2.488   1_556  S
Cd368       O372   2.498       .  S
Cd368       O370   2.415       .  S
C371        C408   1.474       .  S
C371        O375   1.265       .  A
O376        C379   1.268       .  A
O376       Cd381   2.507   1_556  S
C377        O386   1.265       .  A
C377        O382   1.268       .  A
O378        C384   1.268       .  A
O378       Cd381   2.496       .  S
C379        O387   1.264       .  A
C380        O385   1.268       .  A
C380        O383   1.264       .  A
Cd381       O388   2.432       .  S
Cd381       O387   2.422   1_554  S
Cd381       O386   2.441       .  S
Cd381       O382   2.488       .  S
Cd381       O385   2.500       .  S
Cd381       O383   2.425       .  S
C384        O388   1.265       .  A
C389        C390   1.542       .  S
C389        C395   1.534       .  S
C389        C393   1.533       .  S
C389       C1248   1.531       .  S
C390        H397   1.080       .  S
C390        C391   1.370       .  D
C391        C392   1.543       .  S
C391       C1261   1.490       .  S
C392        C396   1.540       .  S
C392        C394   1.545       .  S
C392        H398   1.110       .  S
C393        H399   1.086       .  S
C393        C394   1.367       .  D
C394       C1285   1.490       .  S
C395        H400   1.087       .  S
C395        C396   1.365       .  D
C396        C643   1.476       .  S
C401        C402   1.537       .  S
C401        C407   1.532       .  S
C401        C405   1.543   1_556  S
C401       C1656   1.533   1_556  S
C402        H409   1.085       .  S
C402        C403   1.372       .  D
C403        C404   1.547       .  S
C403       C1224   1.497       .  S
C404        C408   1.536       .  S
C404        C406   1.543   1_556  S
C404        H410   1.107       .  S
C405        H411   1.079       .  S
C405        C406   1.369       .  D
C406       C1272   1.494       .  S
C407        H412   1.087   1_556  S
C407        C408   1.363       .  D
C413        C414   1.536       .  S
C413        C419   1.533       .  S
C413        C417   1.541   1_554  S
C413       C1440   1.533       .  S
C414        H421   1.085       .  S
C414        C415   1.372       .  D
C415        C416   1.549   1_554  S
C415       C1296   1.496       .  S
C416        C420   1.540   1_556  S
C416        C418   1.543       .  S
C416        H422   1.109       .  S
C417        H423   1.080       .  S
C417        C418   1.367       .  D
C418       C1189   1.489       .  S
C419        H424   1.087       .  S
C419        C420   1.365       .  D
C420        C702   1.479   1_554  S
C425        C426   1.542       .  S
C425        C431   1.535       .  S
C425        C429   1.534       .  S
C425       C1176   1.531       .  S
C426        H433   1.080       .  S
C426        C427   1.368       .  D
C427        C428   1.543       .  S
C427       C1200   1.490       .  S
C428        C432   1.538       .  S
C428        C430   1.546       .  S
C428        H434   1.109       .  S
C429        H435   1.086       .  S
C429        C430   1.368       .  D
C430       C1213   1.492       .  S
C431        H436   1.087       .  S
C431        C432   1.366       .  D
C432        C672   1.477       .  S
C437        C438   1.547   1_556  S
C437        C443   1.529       .  S
C437        C441   1.534       .  S
C437       C1693   1.529       .  S
C438        H445   1.081       .  S
C438        C439   1.372       .  D
C439        C440   1.542   1_554  S
C439       C1128   1.490       .  S
C440        C444   1.540       .  S
C440        C442   1.540       .  S
C440        H446   1.110       .  S
C441        H447   1.086       .  S
C441        C442   1.367       .  D
C442       C1152   1.485       .  S
C443        H448   1.087       .  S
C443        C444   1.363       .  D
C449        C450   1.542       .  S
C449        C455   1.531       .  S
C449        C453   1.534       .  S
C449       C1080   1.532       .  S
C450        H457   1.080       .  S
C450        C451   1.370       .  D
C451        C452   1.547       .  S
C451       C1093   1.496       .  S
C452        C456   1.544       .  S
C452        C454   1.546       .  S
C452        H458   1.110       .  S
C453        H459   1.086       .  S
C453        C454   1.368       .  D
C454       C1117   1.489       .  S
C455        H460   1.087       .  S
C455        C456   1.364       .  D
C456        C645   1.479       .  S
C461        C462   1.543       .  S
C461        C467   1.536       .  S
C461        C465   1.538   1_556  S
C461       C1560   1.538       .  S
C462        H469   1.079       .  S
C462        C463   1.365       .  D
C463        C464   1.540       .  S
C463       C1056   1.489       .  S
C464        C468   1.539       .  S
C464        C466   1.550   1_556  S
C464        H470   1.108       .  S
C465        H471   1.085       .  S
C465        C466   1.374       .  D
C466       C1104   1.500       .  S
C467        H472   1.086       .  S
C467        C468   1.366       .  D
C468        C698   1.479       .  S
C473        C474   1.543       .  S
C473        C479   1.532       .  S
C473        C477   1.538       .  S
C473       C1021   1.532       .  S
C474        H481   1.080       .  S
C474        C475   1.368       .  D
C475        C476   1.540       .  S
C475       C1141   1.488       .  S
C476        C480   1.541       .  S
C476        C478   1.542       .  S
C476        H482   1.110       .  S
C477        H483   1.086       .  S
C477        C478   1.368       .  D
C478       C1045   1.487       .  S
C479        H484   1.086       .  S
C479        C480   1.366       .  D
C480        C676   1.478       .  S
C485        C486   1.537       .  S
C485        C491   1.533       .  S
C485        C489   1.544       .  S
C485       C1032   1.531       .  S
C486        H493   1.084       .  S
C486        C487   1.373       .  D
C487        C488   1.546       .  S
C487        C997   1.499       .  S
C488        C492   1.538       .  S
C488        C490   1.541       .  S
C488        H494   1.107       .  S
C489        H495   1.081       .  S
C489        C490   1.367       .  D
C490        C973   1.487       .  S
C491        H496   1.087       .  S
C491        C492   1.362       .  D
C492        C632   1.473       .  S
C497        C498   1.538       .  S
C497        C503   1.532       .  S
C497        C501   1.544       .  S
C497       C1621   1.535       .  S
C498        H505   1.084       .  S
C498        C499   1.374       .  D
C499        C500   1.548       .  S
C499        C984   1.501       .  S
C500        C504   1.540       .  S
C500        C502   1.541       .  S
C500        H506   1.107       .  S
C501        H507   1.082       .  S
C501        C502   1.369       .  D
C502        C960   1.487       .  S
C503        H508   1.087       .  S
C503        C504   1.364       .  D
C509        C510   1.534       .  S
C509        C515   1.531       .  S
C509        C513   1.542       .  S
C509       C1453   1.528       .  S
C510        H517   1.085       .  S
C510        C511   1.369       .  D
C511        C512   1.547       .  S
C511        C925   1.493       .  S
C512        C516   1.538       .  S
C512        C514   1.546       .  S
C512        H518   1.108       .  S
C513        H519   1.080       .  S
C513        C514   1.370       .  D
C514       C1008   1.494       .  S
C515        H520   1.087       .  S
C515        C516   1.362       .  D
C516        C689   1.474       .  S
C521        C522   1.534       .  S
C521        C527   1.532       .  S
C521        C525   1.540       .  S
C521       C1165   1.529       .  S
C522        H529   1.086       .  S
C522        C523   1.368       .  D
C523        C524   1.544       .  S
C523        C949   1.488       .  S
C524        C528   1.540       .  S
C524        C526   1.545       .  S
C524        H530   1.110       .  S
C525        H531   1.081       .  S
C525        C526   1.369       .  D
C526        C936   1.487       .  S
C527        H532   1.087       .  S
C527        C528   1.364       .  D
C528        C658   1.476       .  S
C533        C534   1.533       .  S
C533        C539   1.533       .  S
C533        C537   1.540       .  S
C533       C1752   1.530       .  S
C534        H541   1.086       .  S
C534        C535   1.369       .  D
C535        C536   1.547       .  S
C535        C912   1.491       .  S
C536        C540   1.541       .  S
C536        C538   1.548       .  S
C536        H542   1.108       .  S
C537        H543   1.079       .  S
C537        C538   1.370       .  D
C538        C888   1.497       .  S
C539        H544   1.087       .  S
C539        C540   1.364       .  D
C545        C546   1.537       .  S
C545        C551   1.533       .  S
C545        C549   1.543       .  S
C545       C1069   1.530       .  S
C546        H553   1.086       .  S
C546        C547   1.370       .  D
C547        C548   1.544       .  S
C547        C877   1.494       .  S
C548        C552   1.541       .  S
C548        C550   1.539       .  S
C548        H554   1.110       .  S
C549        H555   1.081       .  S
C549        C550   1.365       .  D
C550        C864   1.480       .  S
C551        H556   1.087       .  S
C551        C552   1.364       .  D
C552        C630   1.475       .  S
C557        C558   1.535       .  S
C557        C563   1.529       .  S
C557        C561   1.544       .  S
C557       C1512   1.530       .  S
C558        H565   1.085       .  S
C558        C559   1.369       .  D
C559        C560   1.545       .  S
C559        C853   1.493       .  S
C560        C564   1.537       .  S
C560        C562   1.547       .  S
C560        H566   1.108       .  S
C561        H567   1.081       .  S
C561        C562   1.374       .  D
C562        C829   1.498       .  S
C563        H568   1.087       .  S
C563        C564   1.361       .  D
C564        C685   1.473       .  S
C569        C570   1.545       .  S
C569        C575   1.533       .  S
C569        C573   1.536       .  S
C569       C1237   1.530       .  S
C570        H577   1.081       .  S
C570        C571   1.371       .  D
C571        C572   1.543       .  S
C571        C840   1.492       .  S
C572        C576   1.535       .  S
C572        C574   1.544       .  S
C572        H578   1.109       .  S
C573        H579   1.086       .  S
C573        C574   1.368       .  D
C574        C901   1.490       .  S
C575        H580   1.087       .  S
C575        C576   1.363       .  D
C576        C656   1.473       .  S
C581        C582   1.545       .  S
C581        C587   1.533       .  S
C581        C585   1.540       .  S
C581       C1896   1.532       .  S
C582        H589   1.079       .  S
C582        C583   1.368       .  D
C583        C584   1.538       .  S
C583        C816   1.489       .  S
C584        C588   1.538       .  S
C584        C586   1.539       .  S
C584        H590   1.109       .  S
C585        H591   1.086       .  S
C585        C586   1.370       .  D
C586        C781   1.485       .  S
C587        H592   1.087       .  S
C587        C588   1.364       .  D
C588        C659   1.475       .  S
C593        C594   1.545       .  S
C593        C599   1.536       .  S
C593        C597   1.537       .  S
C593       C1320   1.536       .  S
C594        H601   1.080       .  S
C594        C595   1.367       .  D
C595        C596   1.539       .  S
C595        C792   1.483       .  S
C596        C600   1.539       .  S
C596        C598   1.541       .  S
C596        H602   1.110       .  S
C597        H603   1.086       .  S
C597        C598   1.369       .  D
C598        C768   1.487       .  S
C599        H604   1.086       .  S
C599        C600   1.368       .  D
C600        C669   1.481       .  S
C605        C606   1.543       .  S
C605        C611   1.529       .  S
C605        C609   1.533       .  S
C605       C1992   1.529       .  S
C606        H613   1.080       .  S
C606        C607   1.372       .  D
C607        C608   1.544       .  S
C607        C733   1.490       .  S
C608        C612   1.542       .  S
C608        C610   1.542       .  S
C608        H614   1.110       .  S
C609        H615   1.087       .  S
C609        C610   1.366       .  D
C610        C805   1.482       .  S
C611        H616   1.087       .  S
C611        C612   1.363       .  D
C612        C650   1.477       .  S
C617        C618   1.544       .  S
C617        C623   1.530       .  S
C617        C621   1.535       .  S
C617       C2400   1.533       .  S
C618        H625   1.080       .  S
C618        C619   1.371       .  D
C619        C620   1.544       .  S
C619        C757   1.493       .  S
C620        C624   1.542       .  S
C620        C622   1.542       .  S
C620        H626   1.109       .  S
C621        H627   1.086       .  S
C621        C622   1.369       .  D
C622        C744   1.487       .  S
C623        H628   1.087       .  S
C623        C624   1.365       .  D
C624        C637   1.479       .  S
O629        C632   1.266       .  A
O629       Cd634   2.475       .  S
C630        O639   1.267       .  A
C630        O635   1.266       .  A
O631        C637   1.269       .  A
O631       Cd634   2.516       .  S
C632        O640   1.265       .  A
C633        O638   1.269       .  A
C633        O636   1.263       .  A
Cd634       O641   2.418       .  S
Cd634       O640   2.434       .  S
Cd634       O639   2.442       .  S
Cd634       O635   2.470       .  S
Cd634       O638   2.517       .  S
Cd634       O636   2.402       .  S
C637        O641   1.264       .  A
O642        C645   1.267       .  A
O642       Cd647   2.506       .  S
C643        O652   1.265       .  A
C643        O648   1.267       .  A
O644        C650   1.268       .  A
O644       Cd647   2.515       .  S
C645        O653   1.265       .  A
C646        O651   1.268   1_455  A
C646        O649   1.265   1_455  A
Cd647       O654   2.412       .  S
Cd647       O653   2.429       .  S
Cd647       O652   2.433       .  S
Cd647       O648   2.491       .  S
Cd647       O651   2.491       .  S
Cd647       O649   2.433       .  S
C650        O654   1.264       .  A
O655        C658   1.268       .  A
O655       Cd660   2.499       .  S
C656        O665   1.264       .  A
C656        O661   1.268       .  A
O657        C663   1.268       .  A
O657       Cd660   2.492       .  S
C658        O666   1.265       .  A
C659        O664   1.267       .  A
C659        O662   1.265       .  A
Cd660       O667   2.427       .  S
Cd660       O666   2.421       .  S
Cd660       O665   2.424       .  S
Cd660       O661   2.481       .  S
Cd660       O664   2.484       .  S
Cd660       O662   2.431       .  S
C663        O667   1.265       .  A
O668        C671   1.270       .  A
O668       Cd673   2.511       .  S
C669        O678   1.265       .  A
C669        O674   1.270       .  A
O670        C676   1.269       .  A
O670       Cd673   2.498       .  S
C671        O679   1.264       .  A
C672        O677   1.269       .  A
C672        O675   1.266       .  A
Cd673       O680   2.429       .  S
Cd673       O679   2.420       .  S
Cd673       O678   2.439       .  S
Cd673       O674   2.503       .  S
Cd673       O677   2.486       .  S
Cd673       O675   2.438       .  S
C676        O680   1.265       .  A
O681        C684   1.267       .  A
O681       Cd686   2.493       .  S
C682        O691   1.264       .  A
C682        O687   1.268       .  A
O683        C689   1.267       .  A
O683       Cd686   2.486       .  S
C684        O692   1.265       .  A
C685        O690   1.268       .  A
C685        O688   1.265       .  A
Cd686       O693   2.424       .  S
Cd686       O692   2.419       .  S
Cd686       O691   2.422       .  S
Cd686       O687   2.484       .  S
Cd686       O690   2.483       .  S
Cd686       O688   2.415       .  S
C689        O693   1.264       .  A
O694        C697   1.267       .  A
O694       Cd699   2.477   1_554  S
C695        O704   1.265       .  A
C695        O700   1.266       .  A
O696        C702   1.268       .  A
O696       Cd699   2.500       .  S
C697        O705   1.265       .  A
C698        O703   1.268       .  A
C698        O701   1.265       .  A
Cd699       O706   2.438   1_556  S
Cd699       O705   2.431   1_556  S
Cd699       O704   2.441       .  S
Cd699       O700   2.487       .  S
Cd699       O703   2.494       .  S
Cd699       O701   2.441       .  S
C702        O706   1.264   1_556  A
O707        C710   1.268       .  A
O707       Cd712   2.508       .  S
C708        O717   1.264       .  A
C708        O713   1.269   1_556  A
O709        C715   1.266       .  A
O709       Cd712   2.474   1_556  S
C710        O718   1.264       .  A
C711        O716   1.266       .  A
C711        O714   1.266       .  A
Cd712       O719   2.435   1_554  S
Cd712       O718   2.426       .  S
Cd712       O717   2.423   1_554  S
Cd712       O713   2.503       .  S
Cd712       O716   2.478       .  S
Cd712       O714   2.444       .  S
C715        O719   1.265       .  A
O720        C723   1.268       .  A
O720       Cd725   2.508       .  S
C721        O730   1.264       .  A
C721        O726   1.269       .  A
O722        C728   1.267       .  A
O722       Cd725   2.501       .  S
C723        O731   1.264       .  A
C724        O729   1.267       .  A
C724        O727   1.265       .  A
Cd725       O732   2.433       .  S
Cd725       O731   2.427       .  S
Cd725       O730   2.413       .  S
Cd725       O726   2.518       .  S
Cd725       O729   2.483       .  S
Cd725       O727   2.433       .  S
C728        O732   1.266       .  A
C733        C734   1.406       .  A
C733        C738   1.405       .  A
C734        C735   1.404       .  A
C734        H747   1.082       .  S
C735        C736   1.406       .  A
C735        H748   1.083       .  S
C736        C739   1.492       .  S
C736        C737   1.407       .  A
C737        C738   1.394       .  A
C737        H749   1.081       .  S
C738        H750   1.082       .  S
C739        H751   1.084       .  S
C739        C740   1.349       .  D
C740        H752   1.085       .  S
C740        C741   1.488       .  S
C741        C742   1.403       .  A
C741        C746   1.409       .  A
C742        C743   1.393       .  A
C742        H753   1.084       .  S
C743        C744   1.404       .  A
C743        H754   1.083       .  S
C744        C745   1.406       .  A
C745        C746   1.405       .  A
C745        H755   1.083       .  S
C746        H756   1.081       .  S
C757        C758   1.406       .  A
C757        C762   1.406       .  A
C758        C759   1.405       .  A
C758        H771   1.082       .  S
C759        C760   1.406       .  A
C759        H772   1.083       .  S
C760        C763   1.493       .  S
C760        C761   1.407       .  A
C761        C762   1.396       .  A
C761        H773   1.082       .  S
C762        H774   1.082       .  S
C763        H775   1.084       .  S
C763        C764   1.351       .  D
C764        H776   1.085       .  S
C764        C765   1.492       .  S
C765        C766   1.405       .  A
C765        C770   1.410       .  A
C766        C767   1.396       .  A
C766        H777   1.083       .  S
C767        C768   1.403       .  A
C767        H778   1.083       .  S
C768        C769   1.405       .  A
C769        C770   1.405       .  A
C769        H779   1.083       .  S
C770        H780   1.081       .  S
C781        C782   1.404       .  A
C781        C786   1.405       .  A
C782        C783   1.396       .  A
C782        H795   1.083       .  S
C783        C784   1.403       .  A
C783        H796   1.083       .  S
C784        C787   1.486       .  S
C784        C785   1.409       .  A
C785        C786   1.400       .  A
C785        H797   1.081       .  S
C786        H798   1.083       .  S
C787        H799   1.083       .  S
C787        C788   1.348       .  D
C788        H800   1.085       .  S
C788        C789   1.490       .  S
C789        C790   1.404       .  A
C789        C794   1.411       .  A
C790        C791   1.397       .  A
C790        H801   1.083       .  S
C791        C792   1.404       .  A
C791        H802   1.083       .  S
C792        C793   1.402       .  A
C793        C794   1.399       .  A
C793        H803   1.083       .  S
C794        H804   1.080       .  S
C805        C806   1.403       .  A
C805        C810   1.403       .  A
C806        C807   1.393       .  A
C806        H819   1.083       .  S
C807        C808   1.403       .  A
C807        H820   1.084       .  S
C808        C811   1.488       .  S
C808        C809   1.411       .  A
C809        C810   1.405       .  A
C809        H821   1.081       .  S
C810        H822   1.083       .  S
C811        H823   1.085       .  S
C811        C812   1.348       .  D
C812        H824   1.084       .  S
C812        C813   1.490       .  S
C813        C814   1.405       .  A
C813        C818   1.407       .  A
C814        C815   1.403       .  A
C814        H825   1.083       .  S
C815        C816   1.405       .  A
C815        H826   1.083       .  S
C816        C817   1.406       .  A
C817        C818   1.395       .  A
C817        H827   1.082       .  S
C818        H828   1.081       .  S
C829        C830   1.406       .  A
C829        C834   1.408       .  A
C830        C831   1.399       .  A
C830        H843   1.076       .  S
C831        C832   1.403       .  A
C831        H844   1.083       .  S
C832        C835   1.491       .  S
C832        C833   1.408       .  A
C833        C834   1.400       .  A
C833        H845   1.081       .  S
C834        H846   1.082       .  S
C835        H847   1.083       .  S
C835        C836   1.350   1_545  D
C836        H848   1.084       .  S
C836        C837   1.492       .  S
C837        C838   1.404       .  A
C837        C842   1.409       .  A
C838        C839   1.398       .  A
C838        H849   1.083       .  S
C839        C840   1.406       .  A
C839        H850   1.083       .  S
C840        C841   1.404       .  A
C841        C842   1.400       .  A
C841        H851   1.077       .  S
C842        H852   1.080       .  S
C853        C854   1.407       .  A
C853        C858   1.404       .  A
C854        C855   1.397       .  A
C854        H867   1.082       .  S
C855        C856   1.404       .  A
C855        H868   1.083       .  S
C856        C859   1.492       .  S
C856        C857   1.409       .  A
C857        C858   1.400       .  A
C857        H869   1.079       .  S
C858        H870   1.076       .  S
C859        H871   1.084       .  S
C859        C860   1.350       .  D
C860        H872   1.082       .  S
C860        C861   1.491       .  S
C861        C862   1.405       .  A
C861        C866   1.410       .  A
C862        C863   1.399       .  A
C862        H873   1.083       .  S
C863        C864   1.400       .  A
C863        H874   1.079       .  S
C864        C865   1.403       .  A
C865        C866   1.398       .  A
C865        H875   1.083       .  S
C866        H876   1.080       .  S
C877        C878   1.407   1_655  A
C877        C882   1.406       .  A
C878        C879   1.397       .  A
C878        H891   1.082       .  S
C879        C880   1.403       .  A
C879        H892   1.083       .  S
C880        C883   1.490       .  S
C880        C881   1.408       .  A
C881        C882   1.402   1_455  A
C881        H893   1.081       .  S
C882        H894   1.078       .  S
C883        H895   1.084       .  S
C883        C884   1.350       .  D
C884        H896   1.085       .  S
C884        C885   1.494       .  S
C885        C886   1.406       .  A
C885        C890   1.408       .  A
C886        C887   1.402       .  A
C886        H897   1.083       .  S
C887        C888   1.405       .  A
C887        H898   1.079       .  S
C888        C889   1.408       .  A
C889        C890   1.397       .  A
C889        H899   1.082       .  S
C890        H900   1.080       .  S
C901        C902   1.402       .  A
C901        C906   1.407   1_655  A
C902        C903   1.396   1_655  A
C902        H915   1.077       .  S
C903        C904   1.403       .  A
C903        H916   1.084   1_455  S
C904        C907   1.489       .  S
C904        C905   1.409       .  A
C905        C906   1.399       .  A
C905        H917   1.080       .  S
C906        H918   1.082       .  S
C907        H919   1.084   1_565  S
C907        C908   1.348       .  D
C908        H920   1.084       .  S
C908        C909   1.488   1_565  S
C909        C910   1.402       .  A
C909        C914   1.409       .  A
C910        C911   1.397       .  A
C910        H921   1.083   1_545  S
C911        C912   1.408       .  A
C911        H922   1.082       .  S
C912        C913   1.404       .  A
C913        C914   1.399       .  A
C913        H923   1.078       .  S
C914        H924   1.081       .  S
C925        C926   1.404       .  A
C925        C930   1.408       .  A
C926        C927   1.397       .  A
C926        H939   1.075       .  S
C927        C928   1.401       .  A
C927        H940   1.084       .  S
C928        C931   1.486       .  S
C928        C929   1.407       .  A
C929        C930   1.399       .  A
C929        H941   1.081       .  S
C930        H942   1.082       .  S
C931        H943   1.084       .  S
C931        C932   1.347   1_545  D
C932        H944   1.085       .  S
C932        C933   1.489       .  S
C933        C934   1.402       .  A
C933        C938   1.410       .  A
C934        C935   1.396       .  A
C934        H945   1.083       .  S
C935        C936   1.406       .  A
C935        H946   1.083       .  S
C936        C937   1.403       .  A
C937        C938   1.401       .  A
C937        H947   1.080       .  S
C938        H948   1.080       .  S
C949        C950   1.405   1_655  A
C949        C954   1.405       .  A
C950        C951   1.395       .  A
C950        H963   1.083       .  S
C951        C952   1.402       .  A
C951        H964   1.084       .  S
C952        C955   1.487       .  S
C952        C953   1.408       .  A
C953        C954   1.403   1_455  A
C953        H965   1.082       .  S
C954        H966   1.080       .  S
C955        H967   1.084       .  S
C955        C956   1.348   1_565  D
C956        H968   1.085       .  S
C956        C957   1.492       .  S
C957        C958   1.405       .  A
C957        C962   1.410       .  A
C958        C959   1.401       .  A
C958        H969   1.083       .  S
C959        C960   1.403       .  A
C959        H970   1.079       .  S
C960        C961   1.403       .  A
C961        C962   1.398       .  A
C961        H971   1.083       .  S
C962        H972   1.080       .  S
C973        C974   1.402       .  A
C973        C978   1.404   1_655  A
C974        C975   1.399   1_655  A
C974        H987   1.077       .  S
C975        C976   1.405       .  A
C975        H988   1.083   1_455  S
C976        C979   1.493       .  S
C976        C977   1.410       .  A
C977        C978   1.399       .  A
C977        H989   1.080       .  S
C978        H990   1.083       .  S
C979        H991   1.083       .  S
C979        C980   1.350       .  D
C980        H992   1.083       .  S
C980        C981   1.494       .  S
C981        C982   1.403       .  A
C981        C986   1.408       .  A
C982        C983   1.397       .  A
C982        H993   1.084       .  S
C983        C984   1.408       .  A
C983        H994   1.081       .  S
C984        C985   1.408       .  A
C985        C986   1.401       .  A
C985        H995   1.077       .  S
C986        H996   1.079       .  S
C997        C998   1.408       .  A
C997       C1002   1.409       .  A
C998        C999   1.397       .  A
C998       H1011   1.076       .  S
C999       C1000   1.401       .  A
C999       H1012   1.084       .  S
C1000      C1003   1.487       .  S
C1000      C1001   1.407       .  A
C1001      C1002   1.399       .  A
C1001      H1013   1.081       .  S
C1002      H1014   1.081       .  S
C1003      H1015   1.083       .  S
C1003      C1004   1.348       .  D
C1004      H1016   1.085       .  S
C1004      C1005   1.490       .  S
C1005      C1006   1.403       .  A
C1005      C1010   1.408       .  A
C1006      C1007   1.397       .  A
C1006      H1017   1.083       .  S
C1007      C1008   1.407       .  A
C1007      H1018   1.082       .  S
C1008      C1009   1.404       .  A
C1009      C1010   1.399       .  A
C1009      H1019   1.076       .  S
C1010      H1020   1.080       .  S
C1021      C1022   1.409       .  A
C1021      C1026   1.412       .  A
C1022      C1023   1.399       .  A
C1022      H1035   1.083       .  S
C1023      C1024   1.403       .  A
C1023      H1036   1.083       .  S
C1024      C1027   1.490       .  S
C1024      C1025   1.406       .  A
C1025      C1026   1.399       .  A
C1025      H1037   1.081       .  S
C1026      H1038   1.076       .  S
C1027      H1039   1.084       .  S
C1027      C1028   1.350       .  D
C1028      H1040   1.085       .  S
C1028      C1029   1.491       .  S
C1029      C1030   1.403       .  A
C1029      C1034   1.406       .  A
C1030      C1031   1.399       .  A
C1030      H1041   1.084       .  S
C1031      C1032   1.410       .  A
C1031      H1042   1.077       .  S
C1032      C1033   1.410       .  A
C1033      C1034   1.398       .  A
C1033      H1043   1.083       .  S
C1034      H1044   1.081       .  S
C1045      C1046   1.404       .  A
C1045      C1050   1.406       .  A
C1046      C1047   1.399       .  A
C1046      H1059   1.083       .  S
C1047      C1048   1.404       .  A
C1047      H1060   1.083       .  S
C1048      C1051   1.490       .  S
C1048      C1049   1.409       .  A
C1049      C1050   1.399       .  A
C1049      H1061   1.081       .  S
C1050      H1062   1.083       .  S
C1051      H1063   1.084       .  S
C1051      C1052   1.349       .  D
C1052      H1064   1.084       .  S
C1052      C1053   1.490       .  S
C1053      C1054   1.403       .  A
C1053      C1058   1.409       .  A
C1054      C1055   1.397       .  A
C1054      H1065   1.083       .  S
C1055      C1056   1.406       .  A
C1055      H1066   1.083       .  S
C1056      C1057   1.403       .  A
C1057      C1058   1.401       .  A
C1057      H1067   1.078       .  S
C1058      H1068   1.081       .  S
C1069      C1070   1.410       .  A
C1069      C1074   1.409       .  A
C1070      C1071   1.398       .  A
C1070      H1083   1.077       .  S
C1071      C1072   1.403       .  A
C1071      H1084   1.084       .  S
C1072      C1075   1.491       .  S
C1072      C1073   1.407       .  A
C1073      C1074   1.399       .  A
C1073      H1085   1.080       .  S
C1074      H1086   1.083       .  S
C1075      H1087   1.084       .  S
C1075      C1076   1.350       .  D
C1076      H1088   1.084       .  S
C1076      C1077   1.492       .  S
C1077      C1078   1.402       .  A
C1077      C1082   1.407       .  A
C1078      C1079   1.398       .  A
C1078      H1089   1.083       .  S
C1079      C1080   1.409       .  A
C1079      H1090   1.083       .  S
C1080      C1081   1.411       .  A
C1081      C1082   1.399       .  A
C1081      H1091   1.076       .  S
C1082      H1092   1.080       .  S
C1093      C1094   1.408       .  A
C1093      C1098   1.405       .  A
C1094      C1095   1.397       .  A
C1094      H1107   1.082       .  S
C1095      C1096   1.402       .  A
C1095      H1108   1.083       .  S
C1096      C1099   1.493       .  S
C1096      C1097   1.410       .  A
C1097      C1098   1.404       .  A
C1097      H1109   1.081       .  S
C1098      H1110   1.079       .  S
C1099      H1111   1.085       .  S
C1099      C1100   1.349       .  D
C1100      H1112   1.084       .  S
C1100      C1101   1.492       .  S
C1101      C1102   1.402       .  A
C1101      C1106   1.408       .  A
C1102      C1103   1.400       .  A
C1102      H1113   1.083       .  S
C1103      C1104   1.407       .  A
C1103      H1114   1.077       .  S
C1104      C1105   1.409       .  A
C1105      C1106   1.402       .  A
C1105      H1115   1.082       .  S
C1106      H1116   1.081       .  S
C1117      C1118   1.405   1_655  A
C1117      C1122   1.404       .  A
C1118      C1119   1.397       .  A
C1118      H1131   1.083       .  S
C1119      C1120   1.404       .  A
C1119      H1132   1.083       .  S
C1120      C1123   1.493       .  S
C1120      C1121   1.411       .  A
C1121      C1122   1.404   1_455  A
C1121      H1133   1.081       .  S
C1122      H1134   1.080       .  S
C1123      H1135   1.084       .  S
C1123      C1124   1.350       .  D
C1124      H1136   1.084       .  S
C1124      C1125   1.495       .  S
C1125      C1126   1.405       .  A
C1125      C1130   1.410       .  A
C1126      C1127   1.401       .  A
C1126      H1137   1.083       .  S
C1127      C1128   1.405       .  A
C1127      H1138   1.083       .  S
C1128      C1129   1.405       .  A
C1129      C1130   1.400       .  A
C1129      H1139   1.083       .  S
C1130      H1140   1.080       .  S
C1141      C1142   1.405   1_655  A
C1141      C1146   1.405   1_655  A
C1142      C1143   1.404       .  A
C1142      H1155   1.083   1_455  S
C1143      C1144   1.406       .  A
C1143      H1156   1.083       .  S
C1144      C1147   1.491       .  S
C1144      C1145   1.407       .  A
C1145      C1146   1.393       .  A
C1145      H1157   1.081       .  S
C1146      H1158   1.082   1_455  S
C1147      H1159   1.085       .  S
C1147      C1148   1.348       .  D
C1148      H1160   1.085       .  S
C1148      C1149   1.485       .  S
C1149      C1150   1.402       .  A
C1149      C1154   1.409       .  A
C1150      C1151   1.393       .  A
C1150      H1161   1.084       .  S
C1151      C1152   1.404       .  A
C1151      H1162   1.083       .  S
C1152      C1153   1.405       .  A
C1153      C1154   1.405       .  A
C1153      H1163   1.083       .  S
C1154      H1164   1.081       .  S
C1165      C1166   1.409       .  A
C1165      C1170   1.410       .  A
C1166      C1167   1.396       .  A
C1166      H1179   1.083       .  S
C1167      C1168   1.401       .  A
C1167      H1180   1.083       .  S
C1168      C1171   1.489       .  S
C1168      C1169   1.407       .  A
C1169      C1170   1.400       .  A
C1169      H1181   1.081       .  S
C1170      H1182   1.077       .  S
C1171      H1183   1.084       .  S
C1171      C1172   1.348       .  D
C1172      H1184   1.084       .  S
C1172      C1173   1.488       .  S
C1173      C1174   1.401       .  A
C1173      C1178   1.406       .  A
C1174      C1175   1.398       .  A
C1174      H1185   1.084       .  S
C1175      C1176   1.411       .  A
C1175      H1186   1.076       .  S
C1176      C1177   1.409       .  A
C1177      C1178   1.398       .  A
C1177      H1187   1.083       .  S
C1178      H1188   1.081       .  S
C1189      C1190   1.407       .  A
C1189      C1194   1.403       .  A
C1190      C1191   1.396       .  A
C1190      H1203   1.083       .  S
C1191      C1192   1.402       .  A
C1191      H1204   1.084       .  S
C1192      C1195   1.488       .  S
C1192      C1193   1.409       .  A
C1193      C1194   1.400       .  A
C1193      H1205   1.081       .  S
C1194      H1206   1.078       .  S
C1195      H1207   1.084       .  S
C1195      C1196   1.348       .  D
C1196      H1208   1.084       .  S
C1196      C1197   1.488       .  S
C1197      C1198   1.403       .  A
C1197      C1202   1.408       .  A
C1198      C1199   1.397       .  A
C1198      H1209   1.083       .  S
C1199      C1200   1.402       .  A
C1199      H1210   1.078       .  S
C1200      C1201   1.407       .  A
C1201      C1202   1.398       .  A
C1201      H1211   1.082       .  S
C1202      H1212   1.081       .  S
C1213      C1214   1.407   1_655  A
C1213      C1218   1.404       .  A
C1214      C1215   1.397       .  A
C1214      H1227   1.082       .  S
C1215      C1216   1.402       .  A
C1215      H1228   1.084       .  S
C1216      C1219   1.488       .  S
C1216      C1217   1.408       .  A
C1217      C1218   1.400   1_455  A
C1217      H1229   1.081       .  S
C1218      H1230   1.078       .  S
C1219      H1231   1.084       .  S
C1219      C1220   1.348       .  D
C1220      H1232   1.085       .  S
C1220      C1221   1.490       .  S
C1221      C1222   1.402       .  A
C1221      C1226   1.408       .  A
C1222      C1223   1.397       .  A
C1222      H1233   1.084       .  S
C1223      C1224   1.406       .  A
C1223      H1234   1.075       .  S
C1224      C1225   1.409       .  A
C1225      C1226   1.400       .  A
C1225      H1235   1.082       .  S
C1226      H1236   1.081       .  S
C1237      C1238   1.410       .  A
C1237      C1242   1.411       .  A
C1238      C1239   1.397       .  A
C1238      H1251   1.083       .  S
C1239      C1240   1.400       .  A
C1239      H1252   1.083       .  S
C1240      C1243   1.487       .  S
C1240      C1241   1.406       .  A
C1241      C1242   1.401       .  A
C1241      H1253   1.082       .  S
C1242      H1254   1.077       .  S
C1243      H1255   1.085       .  S
C1243      C1244   1.348       .  D
C1244      H1256   1.086       .  S
C1244      C1245   1.488       .  S
C1245      C1246   1.401       .  A
C1245      C1250   1.406       .  A
C1246      C1247   1.397       .  A
C1246      H1257   1.083       .  S
C1247      C1248   1.409       .  A
C1247      H1258   1.083       .  S
C1248      C1249   1.411       .  A
C1249      C1250   1.400       .  A
C1249      H1259   1.077       .  S
C1250      H1260   1.082       .  S
C1261      C1262   1.406   1_655  A
C1261      C1266   1.404       .  A
C1262      C1263   1.396       .  A
C1262      H1275   1.083       .  S
C1263      C1264   1.403       .  A
C1263      H1276   1.084       .  S
C1264      C1267   1.488       .  S
C1264      C1265   1.409       .  A
C1265      C1266   1.401   1_455  A
C1265      H1277   1.081       .  S
C1266      H1278   1.079       .  S
C1267      H1279   1.085       .  S
C1267      C1268   1.348       .  D
C1268      H1280   1.084       .  S
C1268      C1269   1.489       .  S
C1269      C1270   1.403       .  A
C1269      C1274   1.408       .  A
C1270      C1271   1.400       .  A
C1270      H1281   1.084       .  S
C1271      C1272   1.405       .  A
C1271      H1282   1.076       .  S
C1272      C1273   1.407       .  A
C1273      C1274   1.398       .  A
C1273      H1283   1.082       .  S
C1274      H1284   1.081       .  S
C1285      C1286   1.406       .  A
C1285      C1290   1.404       .  A
C1286      C1287   1.396       .  A
C1286      H1299   1.083       .  S
C1287      C1288   1.403       .  A
C1287      H1300   1.083       .  S
C1288      C1291   1.491       .  S
C1288      C1289   1.409       .  A
C1289      C1290   1.402       .  A
C1289      H1301   1.081       .  S
C1290      H1302   1.079       .  S
C1291      H1303   1.084       .  S
C1291      C1292   1.349       .  D
C1292      H1304   1.084       .  S
C1292      C1293   1.492       .  S
C1293      C1294   1.404       .  A
C1293      C1298   1.408       .  A
C1294      C1295   1.401       .  A
C1294      H1305   1.083       .  S
C1295      C1296   1.406       .  A
C1295      H1306   1.077       .  S
C1296      C1297   1.408       .  A
C1297      C1298   1.398       .  A
C1297      H1307   1.082       .  S
C1298      H1308   1.081       .  S
C1309      C1310   1.411       .  A
C1309      C1314   1.410       .  A
C1310      C1311   1.400       .  A
C1310      H1323   1.076       .  S
C1311      C1312   1.402       .  A
C1311      H1324   1.084       .  S
C1312      C1315   1.491       .  S
C1312      C1313   1.406       .  A
C1313      C1314   1.400       .  A
C1313      H1325   1.081       .  S
C1314      H1326   1.083       .  S
C1315      H1327   1.086       .  S
C1315      C1316   1.348       .  D
C1316      H1328   1.085       .  S
C1316      C1317   1.490       .  S
C1317      C1318   1.401       .  A
C1317      C1322   1.407       .  A
C1318      C1319   1.399       .  A
C1318      H1329   1.084       .  S
C1319      C1320   1.412       .  A
C1319      H1330   1.076       .  S
C1320      C1321   1.410       .  A
C1321      C1322   1.402       .  A
C1321      H1331   1.083       .  S
C1322      H1332   1.082       .  S
C1333      C1334   1.406       .  A
C1333      C1338   1.403       .  A
C1334      C1335   1.395       .  A
C1334      H1347   1.082       .  S
C1335      C1336   1.403       .  A
C1335      H1348   1.084       .  S
C1336      C1339   1.491       .  S
C1336      C1337   1.411       .  A
C1337      C1338   1.401       .  A
C1337      H1349   1.080       .  S
C1338      H1350   1.080       .  S
C1339      H1351   1.085       .  S
C1339      C1340   1.347       .  D
C1340      H1352   1.083       .  S
C1340      C1341   1.488       .  S
C1341      C1342   1.399       .  A
C1341      C1346   1.406       .  A
C1342      C1343   1.397       .  A
C1342      H1353   1.084       .  S
C1343      C1344   1.410       .  A
C1343      H1354   1.075       .  S
C1344      C1345   1.411       .  A
C1345      C1346   1.399       .  A
C1345      H1355   1.080       .  S
C1346      H1356   1.081       .  S
C1357      C1358   1.404       .  A
C1357      C1362   1.406       .  A
C1358      C1359   1.400       .  A
C1358      H1371   1.077       .  S
C1359      C1360   1.403       .  A
C1359      H1372   1.083       .  S
C1360      C1363   1.489       .  S
C1360      C1361   1.408       .  A
C1361      C1362   1.398       .  A
C1361      H1373   1.081       .  S
C1362      H1374   1.083       .  S
C1363      H1375   1.084       .  S
C1363      C1364   1.348       .  D
C1364      H1376   1.085       .  S
C1364      C1365   1.489       .  S
C1365      C1366   1.403       .  A
C1365      C1370   1.411       .  A
C1366      C1367   1.395       .  A
C1366      H1377   1.084       .  S
C1367      C1368   1.404       .  A
C1367      H1378   1.083       .  S
C1368      C1369   1.403       .  A
C1369      C1370   1.403       .  A
C1369      H1379   1.081       .  S
C1370      H1380   1.081       .  S
C1381      C1382   1.406       .  A
C1381      C1386   1.404       .  A
C1382      C1383   1.397       .  A
C1382      H1395   1.083       .  S
C1383      C1384   1.403       .  A
C1383      H1396   1.083       .  S
C1384      C1387   1.492       .  S
C1384      C1385   1.410       .  A
C1385      C1386   1.402       .  A
C1385      H1397   1.080       .  S
C1386      H1398   1.078       .  S
C1387      H1399   1.084       .  S
C1387      C1388   1.349       .  D
C1388      H1400   1.083       .  S
C1388      C1389   1.491       .  S
C1389      C1390   1.403       .  A
C1389      C1394   1.410       .  A
C1390      C1391   1.398       .  A
C1390      H1401   1.083       .  S
C1391      C1392   1.403       .  A
C1391      H1402   1.077       .  S
C1392      C1393   1.406       .  A
C1393      C1394   1.400       .  A
C1393      H1403   1.083       .  S
C1394      H1404   1.081       .  S
C1405      C1406   1.405       .  A
C1405      C1410   1.409       .  A
C1406      C1407   1.398       .  A
C1406      H1419   1.077       .  S
C1407      C1408   1.403       .  A
C1407      H1420   1.084       .  S
C1408      C1411   1.487       .  S
C1408      C1409   1.407       .  A
C1409      C1410   1.398       .  A
C1409      H1421   1.080       .  S
C1410      H1422   1.082       .  S
C1411      H1423   1.085       .  S
C1411      C1412   1.348       .  D
C1412      H1424   1.084       .  S
C1412      C1413   1.486       .  S
C1413      C1414   1.402       .  A
C1413      C1418   1.406       .  A
C1414      C1415   1.398       .  A
C1414      H1425   1.083       .  S
C1415      C1416   1.409       .  A
C1415      H1426   1.082       .  S
C1416      C1417   1.405       .  A
C1417      C1418   1.397       .  A
C1417      H1427   1.076       .  S
C1418      H1428   1.082       .  S
C1429      C1430   1.409   1_554  A
C1429      C1434   1.411       .  A
C1430      C1431   1.397       .  A
C1430      H1443   1.083       .  S
C1431      C1432   1.401       .  A
C1431      H1444   1.083       .  S
C1432      C1435   1.489       .  S
C1432      C1433   1.407   1_556  A
C1433      C1434   1.402       .  A
C1433      H1445   1.082       .  S
C1434      H1446   1.077       .  S
C1435      H1447   1.086       .  S
C1435      C1436   1.349   1_556  D
C1436      H1448   1.085       .  S
C1436      C1437   1.489       .  S
C1437      C1438   1.402       .  A
C1437      C1442   1.405   1_554  A
C1438      C1439   1.400       .  A
C1438      H1449   1.083       .  S
C1439      C1440   1.410       .  A
C1439      H1450   1.083       .  S
C1440      C1441   1.412   1_554  A
C1441      C1442   1.398       .  A
C1441      H1451   1.076       .  S
C1442      H1452   1.082       .  S
C1453      C1454   1.409       .  A
C1453      C1458   1.410       .  A
C1454      C1455   1.397       .  A
C1454      H1467   1.083       .  S
C1455      C1456   1.401       .  A
C1455      H1468   1.083       .  S
C1456      C1459   1.487       .  S
C1456      C1457   1.407       .  A
C1457      C1458   1.398       .  A
C1457      H1469   1.081       .  S
C1458      H1470   1.076       .  S
C1459      H1471   1.084       .  S
C1459      C1460   1.347       .  D
C1460      H1472   1.085       .  S
C1460      C1461   1.488       .  S
C1461      C1462   1.401       .  A
C1461      C1466   1.407       .  A
C1462      C1463   1.396       .  A
C1462      H1473   1.084       .  S
C1463      C1464   1.410       .  A
C1463      H1474   1.077       .  S
C1464      C1465   1.409       .  A
C1465      C1466   1.399       .  A
C1465      H1475   1.083       .  S
C1466      H1476   1.080       .  S
C1477      C1478   1.403       .  A
C1477      C1482   1.404       .  A
C1478      C1479   1.393       .  A
C1478      H1491   1.083       .  S
C1479      C1480   1.403       .  A
C1479      H1492   1.084       .  S
C1480      C1483   1.489       .  S
C1480      C1481   1.411       .  A
C1481      C1482   1.405       .  A
C1481      H1493   1.081       .  S
C1482      H1494   1.083       .  S
C1483      H1495   1.085       .  S
C1483      C1484   1.348   1_545  D
C1484      H1496   1.084       .  S
C1484      C1485   1.491       .  S
C1485      C1486   1.404       .  A
C1485      C1490   1.408       .  A
C1486      C1487   1.402       .  A
C1486      H1497   1.083       .  S
C1487      C1488   1.405       .  A
C1487      H1498   1.082       .  S
C1488      C1489   1.406       .  A
C1489      C1490   1.396       .  A
C1489      H1499   1.082       .  S
C1490      H1500   1.081       .  S
C1501      C1502   1.409       .  A
C1501      C1506   1.412       .  A
C1502      C1503   1.396       .  A
C1502      H1515   1.083       .  S
C1503      C1504   1.400       .  A
C1503      H1516   1.083       .  S
C1504      C1507   1.487       .  S
C1504      C1505   1.407       .  A
C1505      C1506   1.403       .  A
C1505      H1517   1.082       .  S
C1506      H1518   1.077       .  S
C1507      H1519   1.086       .  S
C1507      C1508   1.347       .  D
C1508      H1520   1.086       .  S
C1508      C1509   1.489       .  S
C1509      C1510   1.400       .  A
C1509      C1514   1.408       .  A
C1510      C1511   1.396       .  A
C1510      H1521   1.083       .  S
C1511      C1512   1.410       .  A
C1511      H1522   1.083       .  S
C1512      C1513   1.410       .  A
C1513      C1514   1.402       .  A
C1513      H1523   1.078       .  S
C1514      H1524   1.082       .  S
C1525      C1526   1.404       .  A
C1525      C1530   1.404       .  A
C1526      C1527   1.395       .  A
C1526      H1539   1.083       .  S
C1527      C1528   1.403       .  A
C1527      H1540   1.083   1_545  S
C1528      C1531   1.488   1_545  S
C1528      C1529   1.410       .  A
C1529      C1530   1.402       .  A
C1529      H1541   1.081       .  S
C1530      H1542   1.083       .  S
C1531      H1543   1.084       .  S
C1531      C1532   1.348       .  D
C1532      H1544   1.085   1_565  S
C1532      C1533   1.491       .  S
C1533      C1534   1.404       .  A
C1533      C1538   1.410       .  A
C1534      C1535   1.399       .  A
C1534      H1545   1.083       .  S
C1535      C1536   1.405       .  A
C1535      H1546   1.083       .  S
C1536      C1537   1.405       .  A
C1537      C1538   1.399       .  A
C1537      H1547   1.083       .  S
C1538      H1548   1.081       .  S
C1549      C1550   1.409       .  A
C1549      C1554   1.411   1_554  A
C1550      C1551   1.398       .  A
C1550      H1563   1.083       .  S
C1551      C1552   1.401       .  A
C1551      H1564   1.083       .  S
C1552      C1555   1.492       .  S
C1552      C1553   1.408   1_554  A
C1553      C1554   1.402       .  A
C1553      H1565   1.081       .  S
C1554      H1566   1.077       .  S
C1555      H1567   1.084       .  S
C1555      C1556   1.349   1_554  D
C1556      H1568   1.085       .  S
C1556      C1557   1.494       .  S
C1557      C1558   1.401       .  A
C1557      C1562   1.409   1_556  A
C1558      C1559   1.397       .  A
C1558      H1569   1.084       .  S
C1559      C1560   1.412       .  A
C1559      H1570   1.075       .  S
C1560      C1561   1.410   1_556  A
C1561      C1562   1.403       .  A
C1561      H1571   1.083       .  S
C1562      H1572   1.080       .  S
C1573      C1574   1.406       .  A
C1573      C1578   1.405       .  A
C1574      C1575   1.403       .  A
C1574      H1587   1.082       .  S
C1575      C1576   1.405       .  A
C1575      H1588   1.083       .  S
C1576      C1579   1.492       .  S
C1576      C1577   1.408       .  A
C1577      C1578   1.395       .  A
C1577      H1589   1.081       .  S
C1578      H1590   1.082       .  S
C1579      H1591   1.084       .  S
C1579      C1580   1.349       .  D
C1580      H1592   1.085       .  S
C1580      C1581   1.488       .  S
C1581      C1582   1.403       .  A
C1581      C1586   1.410       .  A
C1582      C1583   1.394       .  A
C1582      H1593   1.084       .  S
C1583      C1584   1.403       .  A
C1583      H1594   1.083       .  S
C1584      C1585   1.405       .  A
C1585      C1586   1.404       .  A
C1585      H1595   1.083       .  S
C1586      H1596   1.081       .  S
C1597      C1598   1.403       .  A
C1597      C1602   1.403       .  A
C1598      C1599   1.392       .  A
C1598      H1611   1.083       .  S
C1599      C1600   1.402       .  A
C1599      H1612   1.084       .  S
C1600      C1603   1.487       .  S
C1600      C1601   1.411       .  A
C1601      C1602   1.406       .  A
C1601      H1613   1.081       .  S
C1602      H1614   1.083       .  S
C1603      H1615   1.086       .  S
C1603      C1604   1.348       .  D
C1604      H1616   1.084       .  S
C1604      C1605   1.489       .  S
C1605      C1606   1.404       .  A
C1605      C1610   1.407       .  A
C1606      C1607   1.403       .  A
C1606      H1617   1.083       .  S
C1607      C1608   1.407       .  A
C1607      H1618   1.083       .  S
C1608      C1609   1.404       .  A
C1609      C1610   1.395       .  A
C1609      H1619   1.082       .  S
C1610      H1620   1.082       .  S
C1621      C1622   1.411       .  A
C1621      C1626   1.410       .  A
C1622      C1623   1.402       .  A
C1622      H1635   1.077       .  S
C1623      C1624   1.404       .  A
C1623      H1636   1.083       .  S
C1624      C1627   1.497       .  S
C1624      C1625   1.408       .  A
C1625      C1626   1.400       .  A
C1625      H1637   1.081       .  S
C1626      H1638   1.083       .  S
C1627      H1639   1.083       .  S
C1627      C1628   1.352       .  D
C1628      H1640   1.084       .  S
C1628      C1629   1.497       .  S
C1629      C1630   1.403       .  A
C1629      C1634   1.410       .  A
C1630      C1631   1.397       .  A
C1630      H1641   1.083       .  S
C1631      C1632   1.409       .  A
C1631      H1642   1.083       .  S
C1632      C1633   1.412       .  A
C1633      C1634   1.405       .  A
C1633      H1643   1.077       .  S
C1634      H1644   1.080       .  S
C1645      C1646   1.410       .  A
C1645      C1650   1.410   1_556  A
C1646      C1647   1.398       .  A
C1646      H1659   1.083       .  S
C1647      C1648   1.402       .  A
C1647      H1660   1.083       .  S
C1648      C1651   1.493       .  S
C1648      C1649   1.408   1_556  A
C1649      C1650   1.400       .  A
C1649      H1661   1.080       .  S
C1650      H1662   1.077       .  S
C1651      H1663   1.085       .  S
C1651      C1652   1.349   1_556  D
C1652      H1664   1.084       .  S
C1652      C1653   1.490   1_554  S
C1653      C1654   1.402   1_556  A
C1653      C1658   1.407       .  A
C1654      C1655   1.398       .  A
C1654      H1665   1.084       .  S
C1655      C1656   1.411       .  A
C1655      H1666   1.076       .  S
C1656      C1657   1.410   1_554  A
C1657      C1658   1.401       .  A
C1657      H1667   1.083       .  S
C1658      H1668   1.081       .  S
C1669      C1670   1.404       .  A
C1669      C1674   1.404       .  A
C1670      C1671   1.397       .  A
C1670      H1683   1.083       .  S
C1671      C1672   1.404       .  A
C1671      H1684   1.083       .  S
C1672      C1675   1.492       .  S
C1672      C1673   1.411       .  A
C1673      C1674   1.402       .  A
C1673      H1685   1.080       .  S
C1674      H1686   1.083       .  S
C1675      H1687   1.085       .  S
C1675      C1676   1.349   1_565  D
C1676      H1688   1.083       .  S
C1676      C1677   1.491       .  S
C1677      C1678   1.402       .  A
C1677      C1682   1.408       .  A
C1678      C1679   1.399       .  A
C1678      H1689   1.083       .  S
C1679      C1680   1.406       .  A
C1679      H1690   1.076       .  S
C1680      C1681   1.408       .  A
C1681      C1682   1.400       .  A
C1681      H1691   1.082       .  S
C1682      H1692   1.081   1_545  S
C1693      C1694   1.410       .  A
C1693      C1698   1.410   1_556  A
C1694      C1695   1.396       .  A
C1694      H1707   1.083       .  S
C1695      C1696   1.401       .  A
C1695      H1708   1.083       .  S
C1696      C1699   1.489       .  S
C1696      C1697   1.408   1_556  A
C1697      C1698   1.401       .  A
C1697      H1709   1.081       .  S
C1698      H1710   1.077       .  S
C1699      H1711   1.082       .  S
C1699      C1700   1.349   1_556  D
C1700      H1712   1.085       .  S
C1700      C1701   1.494       .  S
C1701      C1702   1.403       .  A
C1701      C1706   1.409   1_554  A
C1702      C1703   1.397       .  A
C1702      H1713   1.084       .  S
C1703      C1704   1.409       .  A
C1703      H1714   1.080       .  S
C1704      C1705   1.409   1_554  A
C1705      C1706   1.400       .  A
C1705      H1715   1.082       .  S
C1706      H1716   1.079       .  S
C1717      C1718   1.407       .  A
C1717      C1722   1.410       .  A
C1718      C1719   1.400       .  A
C1718      H1731   1.077       .  S
C1719      C1720   1.402       .  A
C1719      H1732   1.083       .  S
C1720      C1723   1.491       .  S
C1720      C1721   1.406       .  A
C1721      C1722   1.399       .  A
C1721      H1733   1.081       .  S
C1722      H1734   1.081       .  S
C1723      H1735   1.083       .  S
C1723      C1724   1.350       .  D
C1724      H1736   1.085       .  S
C1724      C1725   1.493       .  S
C1725      C1726   1.404       .  A
C1725      C1730   1.409       .  A
C1726      C1727   1.398       .  A
C1726      H1737   1.083       .  S
C1727      C1728   1.407       .  A
C1727      H1738   1.082       .  S
C1728      C1729   1.405       .  A
C1729      C1730   1.401       .  A
C1729      H1739   1.076       .  S
C1730      H1740   1.080       .  S
C1741      C1742   1.409       .  A
C1741      C1746   1.410       .  A
C1742      C1743   1.396       .  A
C1742      H1755   1.083       .  S
C1743      C1744   1.402       .  A
C1743      H1756   1.083       .  S
C1744      C1747   1.489       .  S
C1744      C1745   1.408       .  A
C1745      C1746   1.400       .  A
C1745      H1757   1.081       .  S
C1746      H1758   1.077       .  S
C1747      H1759   1.084       .  S
C1747      C1748   1.348       .  D
C1748      H1760   1.084       .  S
C1748      C1749   1.488       .  S
C1749      C1750   1.402       .  A
C1749      C1754   1.406       .  A
C1750      C1751   1.398       .  A
C1750      H1761   1.084       .  S
C1751      C1752   1.410       .  A
C1751      H1762   1.076       .  S
C1752      C1753   1.409       .  A
C1753      C1754   1.398       .  A
C1753      H1763   1.083       .  S
C1754      H1764   1.081       .  S
C1765      C1766   1.403       .  A
C1765      C1770   1.404       .  A
C1766      C1767   1.398       .  A
C1766      H1779   1.083       .  S
C1767      C1768   1.404       .  A
C1767      H1780   1.083       .  S
C1768      C1771   1.486       .  S
C1768      C1769   1.408       .  A
C1769      C1770   1.398       .  A
C1769      H1781   1.081       .  S
C1770      H1782   1.083       .  S
C1771      H1783   1.084       .  S
C1771      C1772   1.348       .  D
C1772      H1784   1.085       .  S
C1772      C1773   1.488       .  S
C1773      C1774   1.404       .  A
C1773      C1778   1.409       .  A
C1774      C1775   1.398       .  A
C1774      H1785   1.083       .  S
C1775      C1776   1.403       .  A
C1775      H1786   1.083       .  S
C1776      C1777   1.401       .  A
C1777      C1778   1.398       .  A
C1777      H1787   1.079       .  S
C1778      H1788   1.081       .  S
C1789      C1790   1.405       .  A
C1789      C1794   1.406       .  A
C1790      C1791   1.392       .  A
C1790      H1803   1.082       .  S
C1791      C1792   1.401       .  A
C1791      H1804   1.084       .  S
C1792      C1795   1.487       .  S
C1792      C1793   1.410       .  A
C1793      C1794   1.406       .  A
C1793      H1805   1.081       .  S
C1794      H1806   1.083       .  S
C1795      H1807   1.085       .  S
C1795      C1796   1.348   1_545  D
C1796      H1808   1.085       .  S
C1796      C1797   1.492       .  S
C1797      C1798   1.404       .  A
C1797      C1802   1.409       .  A
C1798      C1799   1.403       .  A
C1798      H1809   1.083       .  S
C1799      C1800   1.406       .  A
C1799      H1810   1.082       .  S
C1800      C1801   1.405       .  A
C1801      C1802   1.396       .  A
C1801      H1811   1.082       .  S
C1802      H1812   1.081       .  S
C1813      C1814   1.405   1_545  A
C1813      C1818   1.404       .  A
C1814      C1815   1.397   1_565  A
C1814      H1827   1.083       .  S
C1815      C1816   1.404       .  A
C1815      H1828   1.083   1_545  S
C1816      C1819   1.492       .  S
C1816      C1817   1.410       .  A
C1817      C1818   1.403       .  A
C1817      H1829   1.080       .  S
C1818      H1830   1.079       .  S
C1819      H1831   1.084       .  S
C1819      C1820   1.349       .  D
C1820      H1832   1.084       .  S
C1820      C1821   1.492       .  S
C1821      C1822   1.404       .  A
C1821      C1826   1.409       .  A
C1822      C1823   1.400       .  A
C1822      H1833   1.083       .  S
C1823      C1824   1.404       .  A
C1823      H1834   1.078       .  S
C1824      C1825   1.407       .  A
C1825      C1826   1.399       .  A
C1825      H1835   1.083   1_545  S
C1826      H1836   1.081   1_545  S
C1837      C1838   1.408       .  A
C1837      C1842   1.410       .  A
C1838      C1839   1.395       .  A
C1838      H1851   1.083       .  S
C1839      C1840   1.401       .  A
C1839      H1852   1.083       .  S
C1840      C1843   1.486       .  S
C1840      C1841   1.407       .  A
C1841      C1842   1.398       .  A
C1841      H1853   1.080       .  S
C1842      H1854   1.076       .  S
C1843      H1855   1.084       .  S
C1843      C1844   1.348       .  D
C1844      H1856   1.084       .  S
C1844      C1845   1.486       .  S
C1845      C1846   1.402       .  A
C1845      C1850   1.406       .  A
C1846      C1847   1.398       .  A
C1846      H1857   1.084       .  S
C1847      C1848   1.410       .  A
C1847      H1858   1.076       .  S
C1848      C1849   1.408       .  A
C1849      C1850   1.396       .  A
C1849      H1859   1.083       .  S
C1850      H1860   1.081       .  S
C1861      C1862   1.409       .  A
C1861      C1866   1.412   1_545  A
C1862      C1863   1.398       .  A
C1862      H1875   1.075       .  S
C1863      C1864   1.401       .  A
C1863      H1876   1.084       .  S
C1864      C1867   1.493       .  S
C1864      C1865   1.408   1_545  A
C1865      C1866   1.401       .  A
C1865      H1877   1.081       .  S
C1866      H1878   1.080       .  S
C1867      H1879   1.083       .  S
C1867      C1868   1.349       .  D
C1868      H1880   1.084       .  S
C1868      C1869   1.494       .  S
C1869      C1870   1.404       .  A
C1869      C1874   1.412       .  A
C1870      C1871   1.396       .  A
C1870      H1881   1.083       .  S
C1871      C1872   1.404       .  A
C1871      H1882   1.083   1_545  S
C1872      C1873   1.402       .  A
C1873      C1874   1.403       .  A
C1873      H1883   1.081       .  S
C1874      H1884   1.080       .  S
C1885      C1886   1.409       .  A
C1885      C1890   1.410       .  A
C1886      C1887   1.398       .  A
C1886      H1899   1.083       .  S
C1887      C1888   1.402       .  A
C1887      H1900   1.083       .  S
C1888      C1891   1.492       .  S
C1888      C1889   1.408       .  A
C1889      C1890   1.399       .  A
C1889      H1901   1.080       .  S
C1890      H1902   1.077       .  S
C1891      H1903   1.083       .  S
C1891      C1892   1.349       .  D
C1892      H1904   1.084       .  S
C1892      C1893   1.492       .  S
C1893      C1894   1.402       .  A
C1893      C1898   1.408       .  A
C1894      C1895   1.396       .  A
C1894      H1905   1.084       .  S
C1895      C1896   1.410       .  A
C1895      H1906   1.076       .  S
C1896      C1897   1.410       .  A
C1897      C1898   1.401       .  A
C1897      H1907   1.083       .  S
C1898      H1908   1.080       .  S
C1909      C1910   1.406   1_545  A
C1909      C1914   1.404       .  A
C1910      C1911   1.395   1_565  A
C1910      H1923   1.083       .  S
C1911      C1912   1.403       .  A
C1911      H1924   1.083   1_545  S
C1912      C1915   1.492       .  S
C1912      C1913   1.411       .  A
C1913      C1914   1.403       .  A
C1913      H1925   1.080       .  S
C1914      H1926   1.080       .  S
C1915      H1927   1.085       .  S
C1915      C1916   1.348       .  D
C1916      H1928   1.083       .  S
C1916      C1917   1.490       .  S
C1917      C1918   1.401       .  A
C1917      C1922   1.407       .  A
C1918      C1919   1.398       .  A
C1918      H1929   1.084       .  S
C1919      C1920   1.408       .  A
C1919      H1930   1.075       .  S
C1920      C1921   1.410       .  A
C1921      C1922   1.399       .  A
C1921      H1931   1.081   1_545  S
C1922      H1932   1.081   1_545  S
C1933      C1934   1.403       .  A
C1933      C1938   1.407       .  A
C1934      C1935   1.398       .  A
C1934      H1947   1.077       .  S
C1935      C1936   1.403       .  A
C1935      H1948   1.083       .  S
C1936      C1939   1.492       .  S
C1936      C1937   1.409       .  A
C1937      C1938   1.399       .  A
C1937      H1949   1.080   1_545  S
C1938      H1950   1.083   1_545  S
C1939      H1951   1.084       .  S
C1939      C1940   1.349       .  D
C1940      H1952   1.083   1_545  S
C1940      C1941   1.491       .  S
C1941      C1942   1.403   1_545  A
C1941      C1946   1.410       .  A
C1942      C1943   1.396       .  A
C1942      H1953   1.084       .  S
C1943      C1944   1.407   1_565  A
C1943      H1954   1.082       .  S
C1944      C1945   1.404       .  A
C1945      C1946   1.402       .  A
C1945      H1955   1.079       .  S
C1946      H1956   1.080       .  S
C1957      C1958   1.406       .  A
C1957      C1962   1.409       .  A
C1958      C1959   1.398       .  A
C1958      H1971   1.078       .  S
C1959      C1960   1.402       .  A
C1959      H1972   1.084       .  S
C1960      C1963   1.488       .  S
C1960      C1961   1.407       .  A
C1961      C1962   1.399       .  A
C1961      H1973   1.081       .  S
C1962      H1974   1.081       .  S
C1963      H1975   1.082       .  S
C1963      C1964   1.349       .  D
C1964      H1976   1.085       .  S
C1964      C1965   1.492       .  S
C1965      C1966   1.404       .  A
C1965      C1970   1.411       .  A
C1966      C1967   1.396       .  A
C1966      H1977   1.083       .  S
C1967      C1968   1.405       .  A
C1967      H1978   1.083       .  S
C1968      C1969   1.401       .  A
C1969      C1970   1.400       .  A
C1969      H1979   1.079       .  S
C1970      H1980   1.079       .  S
C1981      C1982   1.410       .  A
C1981      C1986   1.408       .  A
C1982      C1983   1.398       .  A
C1982      H1995   1.076       .  S
C1983      C1984   1.402       .  A
C1983      H1996   1.083       .  S
C1984      C1987   1.490       .  S
C1984      C1985   1.407       .  A
C1985      C1986   1.397       .  A
C1985      H1997   1.080       .  S
C1986      H1998   1.083       .  S
C1987      H1999   1.084       .  S
C1987      C1988   1.348       .  D
C1988      H2000   1.084       .  S
C1988      C1989   1.489       .  S
C1989      C1990   1.401       .  A
C1989      C1994   1.408       .  A
C1990      C1991   1.395       .  A
C1990      H2001   1.083       .  S
C1991      C1992   1.408       .  A
C1991      H2002   1.083       .  S
C1992      C1993   1.410       .  A
C1993      C1994   1.400       .  A
C1993      H2003   1.077       .  S
C1994      H2004   1.080       .  S
C2005      C2006   1.401       .  A
C2005      C2010   1.403       .  A
C2006      C2007   1.399       .  A
C2006      H2019   1.080       .  S
C2007      C2008   1.405       .  A
C2007      H2020   1.083       .  S
C2008      C2011   1.491       .  S
C2008      C2009   1.410       .  A
C2009      C2010   1.397       .  A
C2009      H2021   1.080       .  S
C2010      H2022   1.083       .  S
C2011      H2023   1.083       .  S
C2011      C2012   1.349       .  D
C2012      H2024   1.083       .  S
C2012      C2013   1.491       .  S
C2013      C2014   1.404       .  A
C2013      C2018   1.410       .  A
C2014      C2015   1.395       .  A
C2014      H2025   1.083       .  S
C2015      C2016   1.404       .  A
C2015      H2026   1.083       .  S
C2016      C2017   1.402       .  A
C2017      C2018   1.401       .  A
C2017      H2027   1.079       .  S
C2018      H2028   1.080       .  S
C2029      C2030   1.411       .  A
C2029      C2034   1.409       .  A
C2030      C2031   1.398       .  A
C2030      H2043   1.076       .  S
C2031      C2032   1.402       .  A
C2031      H2044   1.084       .  S
C2032      C2035   1.491       .  S
C2032      C2033   1.407       .  A
C2033      C2034   1.400       .  A
C2033      H2045   1.081       .  S
C2034      H2046   1.083       .  S
C2035      H2047   1.085       .  S
C2035      C2036   1.349       .  D
C2036      H2048   1.084       .  S
C2036      C2037   1.490       .  S
C2037      C2038   1.402       .  A
C2037      C2042   1.407       .  A
C2038      C2039   1.398       .  A
C2038      H2049   1.083       .  S
C2039      C2040   1.409       .  A
C2039      H2050   1.083       .  S
C2040      C2041   1.412       .  A
C2041      C2042   1.400       .  A
C2041      H2051   1.076       .  S
C2042      H2052   1.081       .  S
C2053      C2054   1.400       .  A
C2053      C2058   1.404       .  A
C2054      C2055   1.397       .  A
C2054      H2067   1.079       .  S
C2055      C2056   1.405       .  A
C2055      H2068   1.083       .  S
C2056      C2059   1.490       .  S
C2056      C2057   1.410       .  A
C2057      C2058   1.399       .  A
C2057      H2069   1.080       .  S
C2058      H2070   1.083       .  S
C2059      H2071   1.083       .  S
C2059      C2060   1.349       .  D
C2060      H2072   1.084       .  S
C2060      C2061   1.491       .  S
C2061      C2062   1.403       .  A
C2061      C2066   1.408       .  A
C2062      C2063   1.397       .  A
C2062      H2073   1.084       .  S
C2063      C2064   1.408       .  A
C2063      H2074   1.081       .  S
C2064      C2065   1.407       .  A
C2065      C2066   1.399       .  A
C2065      H2075   1.078       .  S
C2066      H2076   1.080       .  S
C2077      C2078   1.406       .  A
C2077      C2082   1.405       .  A
C2078      C2079   1.396       .  A
C2078      H2091   1.082       .  S
C2079      C2080   1.403       .  A
C2079      H2092   1.084       .  S
C2080      C2083   1.492       .  S
C2080      C2081   1.410       .  A
C2081      C2082   1.403       .  A
C2081      H2093   1.080       .  S
C2082      H2094   1.079       .  S
C2083      H2095   1.085       .  S
C2083      C2084   1.349       .  D
C2084      H2096   1.083       .  S
C2084      C2085   1.491       .  S
C2085      C2086   1.402       .  A
C2085      C2090   1.407       .  A
C2086      C2087   1.400       .  A
C2086      H2097   1.083       .  S
C2087      C2088   1.408       .  A
C2087      H2098   1.077       .  S
C2088      C2089   1.408       .  A
C2089      C2090   1.399       .  A
C2089      H2099   1.081       .  S
C2090      H2100   1.081       .  S
C2101      C2102   1.411       .  A
C2101      C2106   1.409       .  A
C2102      C2103   1.398       .  A
C2102      H2115   1.076       .  S
C2103      C2104   1.402       .  A
C2103      H2116   1.084       .  S
C2104      C2107   1.488       .  S
C2104      C2105   1.406       .  A
C2105      C2106   1.398       .  A
C2105      H2117   1.081       .  S
C2106      H2118   1.083       .  S
C2107      H2119   1.085       .  S
C2107      C2108   1.348       .  D
C2108      H2120   1.084       .  S
C2108      C2109   1.487       .  S
C2109      C2110   1.401       .  A
C2109      C2114   1.407       .  A
C2110      C2111   1.396       .  A
C2110      H2121   1.083       .  S
C2111      C2112   1.409       .  A
C2111      H2122   1.083       .  S
C2112      C2113   1.411       .  A
C2113      C2114   1.399       .  A
C2113      H2123   1.076       .  S
C2114      H2124   1.081       .  S
C2125      C2126   1.405       .  A
C2125      C2130   1.407       .  A
C2126      C2127   1.393       .  A
C2126      H2139   1.082       .  S
C2127      C2128   1.402       .  A
C2127      H2140   1.084       .  S
C2128      C2131   1.488       .  S
C2128      C2129   1.409       .  A
C2129      C2130   1.405       .  A
C2129      H2141   1.081       .  S
C2130      H2142   1.082       .  S
C2131      H2143   1.085       .  S
C2131      C2132   1.349       .  D
C2132      H2144   1.084       .  S
C2132      C2133   1.492       .  S
C2133      C2134   1.406       .  A
C2133      C2138   1.408       .  A
C2134      C2135   1.404       .  A
C2134      H2145   1.083   1_455  S
C2135      C2136   1.404       .  A
C2135      H2146   1.083       .  S
C2136      C2137   1.403       .  A
C2137      C2138   1.394       .  A
C2137      H2147   1.083       .  S
C2138      H2148   1.081       .  S
C2149      C2150   1.408       .  A
C2149      C2154   1.412       .  A
C2150      C2151   1.398       .  A
C2150      H2163   1.083       .  S
C2151      C2152   1.402       .  A
C2151      H2164   1.083       .  S
C2152      C2155   1.492       .  S
C2152      C2153   1.407       .  A
C2153      C2154   1.402       .  A
C2153      H2165   1.081       .  S
C2154      H2166   1.077       .  S
C2155      H2167   1.084       .  S
C2155      C2156   1.350       .  D
C2156      H2168   1.084       .  S
C2156      C2157   1.493       .  S
C2157      C2158   1.404       .  A
C2157      C2162   1.407       .  A
C2158      C2159   1.401       .  A
C2158      H2169   1.083       .  S
C2159      C2160   1.410       .  A
C2159      H2170   1.077       .  S
C2160      C2161   1.409       .  A
C2161      C2162   1.398       .  A
C2161      H2171   1.083       .  S
C2162      H2172   1.081       .  S
C2173      C2174   1.404       .  A
C2173      C2178   1.403       .  A
C2174      C2175   1.398       .  A
C2174      H2187   1.083       .  S
C2175      C2176   1.404       .  A
C2175      H2188   1.083       .  S
C2176      C2179   1.491       .  S
C2176      C2177   1.410       .  A
C2177      C2178   1.400       .  A
C2177      H2189   1.080       .  S
C2178      H2190   1.083       .  S
C2179      H2191   1.085       .  S
C2179      C2180   1.349       .  D
C2180      H2192   1.084       .  S
C2180      C2181   1.489       .  S
C2181      C2182   1.404       .  A
C2181      C2186   1.409       .  A
C2182      C2183   1.397       .  A
C2182      H2193   1.083       .  S
C2183      C2184   1.404       .  A
C2183      H2194   1.083       .  S
C2184      C2185   1.405       .  A
C2185      C2186   1.400       .  A
C2185      H2195   1.083       .  S
C2186      H2196   1.081       .  S
C2197      C2198   1.409       .  A
C2197      C2202   1.411       .  A
C2198      C2199   1.397       .  A
C2198      H2211   1.083       .  S
C2199      C2200   1.402       .  A
C2199      H2212   1.083       .  S
C2200      C2203   1.492       .  S
C2200      C2201   1.408       .  A
C2201      C2202   1.403       .  A
C2201      H2213   1.081       .  S
C2202      H2214   1.080       .  S
C2203      H2215   1.085       .  S
C2203      C2204   1.349       .  D
C2204      H2216   1.085       .  S
C2204      C2205   1.493       .  S
C2205      C2206   1.402       .  A
C2205      C2210   1.409       .  A
C2206      C2207   1.397       .  A
C2206      H2217   1.083       .  S
C2207      C2208   1.409       .  A
C2207      H2218   1.083       .  S
C2208      C2209   1.410       .  A
C2209      C2210   1.403       .  A
C2209      H2219   1.077       .  S
C2210      H2220   1.081       .  S
C2221      C2222   1.404       .  A
C2221      C2226   1.405       .  A
C2222      C2223   1.394       .  A
C2222      H2235   1.083       .  S
C2223      C2224   1.402       .  A
C2223      H2236   1.084       .  S
C2224      C2227   1.486       .  S
C2224      C2225   1.409       .  A
C2225      C2226   1.403       .  A
C2225      H2237   1.081       .  S
C2226      H2238   1.083       .  S
C2227      H2239   1.085       .  S
C2227      C2228   1.349       .  D
C2228      H2240   1.085       .  S
C2228      C2229   1.490       .  S
C2229      C2230   1.405       .  A
C2229      C2234   1.407       .  A
C2230      C2231   1.403       .  A
C2230      H2241   1.083   1_455  S
C2231      C2232   1.406       .  A
C2231      H2242   1.082       .  S
C2232      C2233   1.406       .  A
C2233      C2234   1.394       .  A
C2233      H2243   1.082       .  S
C2234      H2244   1.081       .  S
C2245      C2246   1.406       .  A
C2245      C2250   1.406       .  A
C2246      C2247   1.398       .  A
C2246      H2259   1.082       .  S
C2247      C2248   1.403       .  A
C2247      H2260   1.083       .  S
C2248      C2251   1.491       .  S
C2248      C2249   1.409       .  A
C2249      C2250   1.400       .  A
C2249      H2261   1.081       .  S
C2250      H2262   1.082       .  S
C2251      H2263   1.084       .  S
C2251      C2252   1.349       .  D
C2252      H2264   1.084       .  S
C2252      C2253   1.491       .  S
C2253      C2254   1.404       .  A
C2253      C2258   1.410       .  A
C2254      C2255   1.397       .  A
C2254      H2265   1.083       .  S
C2255      C2256   1.404       .  A
C2255      H2266   1.083       .  S
C2256      C2257   1.404       .  A
C2257      C2258   1.401       .  A
C2257      H2267   1.083       .  S
C2258      H2268   1.080       .  S
C2269      C2270   1.411       .  A
C2269      C2274   1.409       .  A
C2270      C2271   1.398       .  A
C2270      H2283   1.077       .  S
C2271      C2272   1.402       .  A
C2271      H2284   1.084       .  S
C2272      C2275   1.490       .  S
C2272      C2273   1.407       .  A
C2273      C2274   1.400       .  A
C2273      H2285   1.081       .  S
C2274      H2286   1.083       .  S
C2275      H2287   1.085       .  S
C2275      C2276   1.349       .  D
C2276      H2288   1.085       .  S
C2276      C2277   1.490       .  S
C2277      C2278   1.401       .  A
C2277      C2282   1.407       .  A
C2278      C2279   1.397       .  A
C2278      H2289   1.083       .  S
C2279      C2280   1.409       .  A
C2279      H2290   1.083       .  S
C2280      C2281   1.411       .  A
C2281      C2282   1.402       .  A
C2281      H2291   1.077       .  S
C2282      H2292   1.081       .  S
C2293      C2294   1.408       .  A
C2293      C2298   1.412       .  A
C2294      C2295   1.397       .  A
C2294      H2307   1.083       .  S
C2295      C2296   1.403       .  A
C2295      H2308   1.083       .  S
C2296      C2299   1.490       .  S
C2296      C2297   1.406       .  A
C2297      C2298   1.400       .  A
C2297      H2309   1.081       .  S
C2298      H2310   1.076       .  S
C2299      H2311   1.085       .  S
C2299      C2300   1.350       .  D
C2300      H2312   1.084       .  S
C2300      C2301   1.489       .  S
C2301      C2302   1.403       .  A
C2301      C2306   1.405       .  A
C2302      C2303   1.401       .  A
C2302      H2313   1.083       .  S
C2303      C2304   1.410       .  A
C2303      H2314   1.083       .  S
C2304      C2305   1.411       .  A
C2305      C2306   1.396       .  A
C2305      H2315   1.076       .  S
C2306      H2316   1.082       .  S
C2317      C2318   1.405       .  A
C2317      C2322   1.408       .  A
C2318      C2319   1.399       .  A
C2318      H2331   1.077       .  S
C2319      C2320   1.403       .  A
C2319      H2332   1.083       .  S
C2320      C2323   1.490       .  S
C2320      C2321   1.408       .  A
C2321      C2322   1.399       .  A
C2321      H2333   1.081       .  S
C2322      H2334   1.082       .  S
C2323      H2335   1.084       .  S
C2323      C2324   1.349       .  D
C2324      H2336   1.085       .  S
C2324      C2325   1.489       .  S
C2325      C2326   1.402       .  A
C2325      C2330   1.408       .  A
C2326      C2327   1.397       .  A
C2326      H2337   1.084       .  S
C2327      C2328   1.407       .  A
C2327      H2338   1.082       .  S
C2328      C2329   1.405       .  A
C2329      C2330   1.401       .  A
C2329      H2339   1.077       .  S
C2330      H2340   1.081       .  S
C2341      C2342   1.410       .  A
C2341      C2346   1.410       .  A
C2342      C2343   1.399       .  A
C2342      H2355   1.083       .  S
C2343      C2344   1.403       .  A
C2343      H2356   1.083       .  S
C2344      C2347   1.493       .  S
C2344      C2345   1.408       .  A
C2345      C2346   1.399       .  A
C2345      H2357   1.081       .  S
C2346      H2358   1.077       .  S
C2347      H2359   1.084       .  S
C2347      C2348   1.350       .  D
C2348      H2360   1.084       .  S
C2348      C2349   1.492       .  S
C2349      C2350   1.403       .  A
C2349      C2354   1.407       .  A
C2350      C2351   1.398       .  A
C2350      H2361   1.084       .  S
C2351      C2352   1.410       .  A
C2351      H2362   1.076       .  S
C2352      C2353   1.411       .  A
C2353      C2354   1.401       .  A
C2353      H2363   1.083       .  S
C2354      H2364   1.080       .  S
C2365      C2366   1.409       .  A
C2365      C2370   1.410       .  A
C2366      C2367   1.397       .  A
C2366      H2379   1.075       .  S
C2367      C2368   1.400       .  A
C2367      H2380   1.084       .  S
C2368      C2371   1.488       .  S
C2368      C2369   1.407       .  A
C2369      C2370   1.399       .  A
C2369      H2381   1.081       .  S
C2370      H2382   1.080       .  S
C2371      H2383   1.082       .  S
C2371      C2372   1.348       .  D
C2372      H2384   1.085       .  S
C2372      C2373   1.492       .  S
C2373      C2374   1.403       .  A
C2373      C2378   1.410       .  A
C2374      C2375   1.396       .  A
C2374      H2385   1.084       .  S
C2375      C2376   1.406       .  A
C2375      H2386   1.082       .  S
C2376      C2377   1.403       .  A
C2377      C2378   1.400       .  A
C2377      H2387   1.077       .  S
C2378      H2388   1.079       .  S
C2389      C2390   1.410       .  A
C2389      C2394   1.411       .  A
C2390      C2391   1.399       .  A
C2390      H2403   1.083       .  S
C2391      C2392   1.402       .  A
C2391      H2404   1.083       .  S
C2392      C2395   1.490       .  S
C2392      C2393   1.406       .  A
C2393      C2394   1.398       .  A
C2393      H2405   1.081       .  S
C2394      H2406   1.076       .  S
C2395      H2407   1.084       .  S
C2395      C2396   1.350       .  D
C2396      H2408   1.084       .  S
C2396      C2397   1.489       .  S
C2397      C2398   1.402       .  A
C2397      C2402   1.406       .  A
C2398      C2399   1.399       .  A
C2398      H2409   1.084       .  S
C2399      C2400   1.410       .  A
C2399      H2410   1.076       .  S
C2400      C2401   1.410       .  A
C2401      C2402   1.400       .  A
C2401      H2411   1.083       .  S
C2402      H2412   1.081       .  S
C2413      C2414   1.405       .  A
C2413      C2418   1.402       .  A
C2414      C2415   1.396       .  A
C2414      H2427   1.083       .  S
C2415      C2416   1.403       .  A
C2415      H2428   1.084       .  S
C2416      C2419   1.492       .  S
C2416      C2417   1.411       .  A
C2417      C2418   1.402       .  A
C2417      H2429   1.080       .  S
C2418      H2430   1.081       .  S
C2419      H2431   1.084       .  S
C2419      C2420   1.348       .  D
C2420      H2432   1.084       .  S
C2420      C2421   1.491       .  S
C2421      C2422   1.403       .  A
C2421      C2426   1.410       .  A
C2422      C2423   1.397       .  A
C2422      H2433   1.083       .  S
C2423      C2424   1.402       .  A
C2423      H2434   1.077       .  S
C2424      C2425   1.406       .  A
C2425      C2426   1.401       .  A
C2425      H2435   1.083       .  S
C2426      H2436   1.081       .  S
C2437      C2438   1.406       .  A
C2437      C2442   1.405       .  A
C2438      C2439   1.396       .  A
C2438      H2451   1.083       .  S
C2439      C2440   1.403       .  A
C2439      H2452   1.084       .  S
C2440      C2443   1.491       .  S
C2440      C2441   1.410       .  A
C2441      C2442   1.403       .  A
C2441      H2453   1.080       .  S
C2442      H2454   1.080       .  S
C2443      H2455   1.085       .  S
C2443      C2444   1.349       .  D
C2444      H2456   1.084       .  S
C2444      C2445   1.490       .  S
C2445      C2446   1.402       .  A
C2445      C2450   1.407       .  A
C2446      C2447   1.399       .  A
C2446      H2457   1.083       .  S
C2447      C2448   1.407       .  A
C2447      H2458   1.076       .  S
C2448      C2449   1.409       .  A
C2449      C2450   1.399       .  A
C2449      H2459   1.081       .  S
C2450      H2460   1.081       .  S
