geometry optimzed in LAMMPS
_audit_creation_date              2020-11-30 
_audit_creation_method            'lammps2cif' 
_symmetry_space_group_name_H-M    'P1' 
_symmetry_Int_Tables_number       1 
_symmetry_cell_setting            triclinic 
loop_ 
_symmetry_equiv_pos_as_xyz 
  x,y,z 
_cell_length_a                    42.65406471 
_cell_length_b                    42.584086693762025 
_cell_length_c                    30.89145955057182 
_cell_angle_alpha                 90.38998747832423 
_cell_angle_beta                  89.81877939135515 
_cell_angle_gamma                 120.0690256599077 
loop_ 
_atom_site_label 
_atom_site_type_symbol 
_atom_site_fract_x 
_atom_site_fract_y 
_atom_site_fract_z 
_atom_site_charge 
O1          O  0.21178312  0.79422607  0.10418218    -0.85000
O2          O  0.25034511  0.76459456  0.14119120    -0.82000
C3          C  0.28153285  0.79210235  0.14385666     0.98500
O4          O  0.28602266  0.81903324  0.16581483    -0.82100
O5          O  0.27332072  0.86255248  0.22174346    -0.84700
C6          C  0.26086506  0.88180730  0.20719612     1.03000
O7          O  0.22977835  0.86743916  0.19035229    -0.77500
O8          O  0.17947978  0.81668805  0.13317996    -0.77700
C9          C  0.19475165  0.81123928  0.10057094     1.03000
O10         O  0.14927608  0.74518680  0.14936372    -0.85000
O11         O  0.19162276  0.72452332  0.19819353    -0.82000
C12         C  0.21794343  0.72746578  0.22020989     0.98500
O13         O  0.24689220  0.75799074  0.22431467    -0.82100
O14         O  0.23229790  0.80101585  0.27567119    -0.84700
C15         C  0.21057393  0.81067635  0.28945107     1.03000
O16         O  0.19469612  0.82123181  0.26357184    -0.77500
O17         O  0.14475899  0.76985095  0.20891771    -0.77600
C18         C  0.13004022  0.74709067  0.17897870     1.02900
Cr19       Cr  0.20184863  0.76015763  0.15155293     1.93700
Cr20       Cr  0.25643765  0.80931886  0.21930505     1.93200
Cr21       Cr  0.18930939  0.81700707  0.19815682     1.39100
O22         O  0.21607933  0.79612208  0.18996863    -1.22700
O23         O  0.20512105  0.78048996  0.79200361    -0.85000
O24         O  0.23443324  0.74032522  0.75843858    -0.82000
C25         C  0.20764233  0.70908078  0.75158349     0.98500
O26         O  0.18382509  0.70499937  0.72453718    -0.82100
O27         O  0.14652901  0.72181750  0.66501242    -0.84700
C28         C  0.12598415  0.73120057  0.68333917     1.03000
O29         O  0.13866148  0.76091329  0.70354921    -0.77500
O30         O  0.18576980  0.81389360  0.76020072    -0.77700
C31         C  0.18983031  0.79928910  0.79394825     1.03000
O32         O  0.25761546  0.84279524  0.74851891    -0.85000
O33         O  0.28098018  0.80015232  0.70498243    -0.82000
C34         C  0.27945133  0.77434166  0.68281686     0.98500
O35         O  0.24931646  0.74606323  0.67526207    -0.82100
O36         O  0.21335905  0.76669767  0.62018090    -0.84700
C37         C  0.20071394  0.78566934  0.60571999     1.03000
O38         O  0.18495491  0.79716402  0.63076340    -0.77500
O39         O  0.23502682  0.84898996  0.68802701    -0.77600
C40         C  0.25657941  0.86283776  0.71944135     1.02900
Cr41       Cr  0.24188671  0.78991792  0.74746913     1.93700
Cr42       Cr  0.19888067  0.73811538  0.67381470     1.93200
Cr43       Cr  0.18784141  0.80309421  0.69629099     1.39100
O44         O  0.20915214  0.77691299  0.70575499    -1.22700
O45         O  0.20753473  0.43976315  0.28997615    -0.85000
O46         O  0.23336129  0.50677265  0.32901054    -0.82000
C47         C  0.20499725  0.50855856  0.33612120     0.98500
O48         O  0.18186927  0.48763334  0.36322299    -0.82100
O49         O  0.14738742  0.43199402  0.42394279    -0.84700
C50         C  0.12592803  0.40453839  0.40179789     1.03000
O51         O  0.13814207  0.39067484  0.37531951    -0.77500
O52         O  0.18577751  0.38538477  0.31852318    -0.77700
C53         C  0.19189315  0.40572206  0.28588935     1.03000
O54         O  0.25872410  0.42854123  0.33393594    -0.85000
O55         O  0.28086622  0.49225992  0.38128233    -0.82000
C56         C  0.27902825  0.51565404  0.40475958     0.98500
O57         O  0.24886658  0.51411910  0.41025319    -0.82100
O58         O  0.21623863  0.45483994  0.46185055    -0.84700
C59         C  0.20199769  0.42261123  0.47480571     1.03000
O60         O  0.18369935  0.39625496  0.44897180    -0.77500
O61         O  0.23277765  0.39506405  0.39085792    -0.77600
C62         C  0.25563607  0.40488889  0.36063790     1.02900
Cr63       Cr  0.24267706  0.46526584  0.33680390     1.93700
Cr64       Cr  0.19910027  0.46996373  0.41198225     1.93200
Cr65       Cr  0.18666150  0.39544757  0.38300414     1.39100
O66         O  0.20920584  0.44323807  0.37704674    -1.22700
O67         O  0.21999610  0.43576137  0.80214492    -0.85000
O68         O  0.24072566  0.49510775  0.85171930    -0.82000
C69         C  0.21159345  0.49568130  0.85913727     0.98500
O70         O  0.18802467  0.47321586  0.88477797    -0.82100
O71         O  0.15008584  0.41200831  0.93639442    -0.84700
C72         C  0.12812271  0.39102862  0.90830925     1.03000
O73         O  0.13989544  0.38195380  0.87594667    -0.77500
O74         O  0.18747960  0.37762481  0.81621771    -0.77700
C75         C  0.20095422  0.40358969  0.78933175     1.03000
O76         O  0.26521204  0.41489085  0.84716571    -0.85000
O77         O  0.28476300  0.47364927  0.90235847    -0.82000
C78         C  0.28276715  0.49700086  0.92540406     0.98500
O79         O  0.25211032  0.49343025  0.93334244    -0.82100
O80         O  0.21643400  0.42605468  0.97328568    -0.84700
C81         C  0.19771723  0.39219367  0.97862464     1.03000
O82         O  0.17874212  0.37110025  0.94777572    -0.77500
O83         O  0.22583626  0.36994324  0.88757031    -0.77600
C84         C  0.25430494  0.38440639  0.86509733     1.02900
Cr85       Cr  0.24994269  0.45267583  0.85372714     1.93700
Cr86       Cr  0.20246720  0.44939364  0.92884140     1.93200
Cr87       Cr  0.18491750  0.37887342  0.88225087     1.39100
O88         O  0.21267604  0.42662516  0.88801044    -1.22700
O89         O  0.57764672  0.78498281  0.95430924    -0.85000
O90         O  0.50955457  0.74882636  0.99075191    -0.82000
C91         C  0.50617865  0.71841026  0.00022256     0.98500
O92         O  0.52628535  0.71634845  0.02840926    -0.82100
O93         O  0.58121043  0.73672841  0.08824728    -0.84700
C94         C  0.60822675  0.74120034  0.06625506     1.03000
O95         O  0.62378960  0.76729824  0.04039212    -0.77500
O96         O  0.63171589  0.82005570  0.98234695    -0.77700
C97         C  0.61159014  0.80259109  0.95035331     1.03000
O98         O  0.59147337  0.85128713  0.99430518    -0.85000
O99         O  0.52678609  0.81365570  0.03855948    -0.82000
C100        C  0.50198321  0.78997268  0.06178453     0.98500
O101        O  0.50243305  0.76132846  0.07183059    -0.82100
O102        O  0.56143886  0.78660003  0.12475922    -0.84700
C103        C  0.59349750  0.80259382  0.13853307     1.03000
O104        O  0.61949417  0.80856058  0.11324412    -0.77500
O105        O  0.62140366  0.85827773  0.05441783    -0.77600
C106        C  0.61273045  0.87156130  0.02360239     1.02900
Cr107      Cr  0.55291400  0.79891972  0.99757855     1.93700
Cr108      Cr  0.54498573  0.75274490  0.07575809     1.93200
Cr109      Cr  0.62065664  0.81182674  0.04708553     1.39100
O110        O  0.57301760  0.78778646  0.04013427    -1.22700
O111        O  0.56299242  0.78572131  0.46562441    -0.85000
O112        O  0.50331479  0.74774982  0.51753835    -0.82000
C113        C  0.50198190  0.71770788  0.52380054     0.98500
O114        O  0.52614230  0.71658252  0.54601129    -0.82100
O115        O  0.59074822  0.74044871  0.59057340    -0.84700
C116        C  0.61390821  0.74484300  0.56208980     1.03000
O117        O  0.62330772  0.76911220  0.53384110    -0.77500
O118        O  0.62083698  0.81995689  0.48095094    -0.77700
C119        C  0.59552341  0.80354961  0.45349312     1.03000
O120        O  0.58208547  0.85168932  0.50983445    -0.85000
O121        O  0.52679640  0.81280335  0.56822700    -0.82000
C122        C  0.50577485  0.78854500  0.59396415     0.98500
O123        O  0.50918828  0.76108192  0.60079497    -0.82100
O124        O  0.57706378  0.78903585  0.63890628    -0.84700
C125        C  0.61106936  0.80551946  0.64297054     1.03000
O126        O  0.63146005  0.81261429  0.61008552    -0.77500
O127        O  0.62319646  0.86050502  0.55811712    -0.77600
C128        C  0.60870841  0.87290210  0.53324726     1.02900
Cr129      Cr  0.54591954  0.79876043  0.51801998     1.93700
Cr130      Cr  0.55240948  0.75445485  0.59099393     1.93200
Cr131      Cr  0.62108717  0.81369561  0.54613512     1.39100
O132        O  0.57332549  0.78899962  0.55166601    -1.22700
O133        O  0.77234293  0.20392357  0.36252467    -0.85000
O134        O  0.73784672  0.23712782  0.40249695    -0.82000
C135        C  0.70789946  0.21093114  0.41504087     0.98500
O136        O  0.70732708  0.18850155  0.44187617    -0.82100
O137        O  0.73108948  0.15433160  0.49831166    -0.84700
C138        C  0.73501421  0.13203288  0.47487385     1.03000
O139        O  0.76047391  0.14295550  0.44781171    -0.77500
O140        O  0.81055175  0.18802332  0.38766005    -0.77700
C141        C  0.79132951  0.18917032  0.35698611     1.03000
O142        O  0.84049993  0.25838307  0.39737766    -0.85000
O143        O  0.80447826  0.28528336  0.44509359    -0.82000
C144        C  0.78204595  0.28604309  0.47101384     0.98500
O145        O  0.75429006  0.25701121  0.48308553    -0.82100
O146        O  0.78160393  0.22457642  0.53371397    -0.84700
C147        C  0.79867930  0.20909785  0.54526930     1.03000
O148        O  0.80399042  0.18935913  0.51865775    -0.77500
O149        O  0.85122630  0.23841474  0.45741973    -0.77600
C150        C  0.86255367  0.25983848  0.42568066     1.02900
Cr151      Cr  0.78810432  0.24382019  0.40491304     1.93700
Cr152      Cr  0.74597340  0.20641507  0.48646634     1.93200
Cr153      Cr  0.80480359  0.19127965  0.45264856     1.39100
O154        O  0.77951773  0.21364478  0.44807919    -1.22700
O155        O  0.77927021  0.21961730  0.86879870    -0.85000
O156        O  0.73843163  0.23941314  0.91824972    -0.82000
C157        C  0.70944695  0.20982390  0.92541219     0.98500
O158        O  0.70956109  0.18593120  0.94900272    -0.82100
O159        O  0.73492632  0.14954050  0.99796591    -0.84700
C160        C  0.73887122  0.13043265  0.96951635     1.03000
O161        O  0.76269716  0.14501706  0.94064447    -0.77500
O162        O  0.81411325  0.19749941  0.88699053    -0.77700
C163        C  0.79822917  0.20572868  0.85829113     1.03000
O164        O  0.84332827  0.26891156  0.91373084    -0.85000
O165        O  0.80189144  0.28529902  0.96893848    -0.82000
C166        C  0.77652019  0.28131229  0.99344270     0.98500
O167        O  0.75023092  0.24989092  0.00097148    -0.82100
O168        O  0.78133340  0.21469009  0.04285509    -0.84700
C169        C  0.79795243  0.19753341  0.04861038     1.03000
O170        O  0.80506720  0.18289929  0.01689832    -0.77500
O171        O  0.85330839  0.23811916  0.96308058    -0.77600
C172        C  0.86498079  0.26428610  0.93701523     1.02900
Cr173      Cr  0.79016010  0.25066418  0.92028164     1.93700
Cr174      Cr  0.74669151  0.20112592  0.99473041     1.93200
Cr175      Cr  0.80690238  0.19246850  0.95220127     1.39100
O176        O  0.78152765  0.21485405  0.95574333    -1.22700
O177        O  0.77218144  0.56066738  0.04559704    -0.85000
O178        O  0.75238008  0.50102225  0.09503894    -0.82000
C179        C  0.78183889  0.50055347  0.09835192     0.98500
O180        O  0.80770153  0.52449557  0.12040453    -0.82100
O181        O  0.84972438  0.58737459  0.16850410    -0.84700
C182        C  0.86822127  0.60998165  0.13960061     1.03000
O183        O  0.85293243  0.61910689  0.11177468    -0.77500
O184        O  0.79983235  0.61894375  0.06121066    -0.77700
C185        C  0.78865003  0.59323929  0.03368563     1.03000
O186        O  0.72802658  0.58093438  0.09400264    -0.85000
O187        O  0.71259621  0.52441071  0.15067741    -0.82000
C188        C  0.71691437  0.50326432  0.17499828     0.98500
O189        O  0.74765418  0.50568020  0.17765777    -0.82100
O190        O  0.78728677  0.57206609  0.21708356    -0.84700
C191        C  0.80464530  0.60592786  0.22258682     1.03000
O192        O  0.81894190  0.62733583  0.19067688    -0.77500
O193        O  0.76447778  0.62287627  0.13970073    -0.77600
C194        C  0.73637995  0.60892109  0.11669323     1.02900
Cr195      Cr  0.74409021  0.54382670  0.09892456     1.93700
Cr196      Cr  0.79708635  0.54902741  0.16797669     1.93200
Cr197      Cr  0.80730773  0.61853575  0.12615918     1.39100
O198        O  0.78280543  0.57073844  0.13094694    -1.22700
O199        O  0.77704095  0.55391458  0.70642581    -0.85000
O200        O  0.73858152  0.49605967  0.65465346    -0.82000
C201        C  0.70917069  0.49644328  0.65012470     0.98500
O202        O  0.70856030  0.52132338  0.62880961    -0.82100
O203        O  0.73295621  0.58500139  0.58096133    -0.84700
C204        C  0.73623849  0.60728339  0.61010091     1.03000
O205        O  0.75879045  0.61497142  0.63999629    -0.77500
O206        O  0.80827351  0.61264749  0.69437580    -0.77700
C207        C  0.79085143  0.58603957  0.71977339     1.03000
O208        O  0.84336809  0.57386358  0.66224555    -0.85000
O209        O  0.80323986  0.51905404  0.60259117    -0.82000
C210        C  0.77759533  0.49791036  0.57824816     0.98500
O211        O  0.75014287  0.50154077  0.57396463    -0.82100
O212        O  0.78073461  0.56832411  0.53646108    -0.84700
C213        C  0.79906426  0.60222010  0.53210587     1.03000
O214        O  0.80418409  0.62356593  0.56392895    -0.77500
O215        O  0.85120527  0.61791456  0.61917401    -0.77600
C216        C  0.86402131  0.60315532  0.64274088     1.02900
Cr217      Cr  0.79016812  0.53794924  0.65394325     1.93700
Cr218      Cr  0.74552924  0.54560923  0.58304292     1.93200
Cr219      Cr  0.80383273  0.61376614  0.62885124     1.39100
O220        O  0.78026527  0.56609504  0.62203521    -1.22700
O221        O  0.41824426  0.21605419  0.38984917    -0.85000
O222        O  0.48689807  0.24878371  0.35294926    -0.82000
C223        C  0.49123067  0.22265034  0.34162216     0.98500
O224        O  0.46952321  0.19928391  0.31510571    -0.82100
O225        O  0.41260398  0.16397846  0.25595685    -0.84700
C226        C  0.38254828  0.14250583  0.27387597     1.03000
O227        O  0.36793605  0.15437352  0.29965935    -0.77500
O228        O  0.36451405  0.19945501  0.36219856    -0.77700
C229        C  0.38428030  0.20072683  0.39386131     1.03000
O230        O  0.40607614  0.27043752  0.35439586    -0.85000
O231        O  0.47070493  0.29699390  0.30799690    -0.82000
C232        C  0.49474874  0.29720278  0.28382493     0.98500
O233        O  0.49286207  0.26758873  0.27223850    -0.82100
O234        O  0.43469417  0.23409828  0.21885173    -0.84700
C235        C  0.40270490  0.22031556  0.20538390     1.03000
O236        O  0.37618493  0.20294098  0.23097709    -0.77500
O237        O  0.37688290  0.25114548  0.29327956    -0.77600
C238        C  0.38488527  0.27103705  0.32643779     1.02900
Cr239      Cr  0.44373487  0.25561371  0.34794395     1.93700
Cr240      Cr  0.45008978  0.21655304  0.26835627     1.93200
Cr241      Cr  0.37513838  0.20376476  0.29709972     1.39100
O242        O  0.42278886  0.22491401  0.30434462    -1.22700
O243        O  0.42255972  0.20208764  0.70489155    -0.85000
O244        O  0.49057954  0.24422264  0.74186621    -0.82000
C245        C  0.49368322  0.27523694  0.74464959     0.98500
O246        O  0.47158685  0.27951700  0.76731751    -0.82100
O247        O  0.41580541  0.26669976  0.82222069    -0.84700
C248        C  0.38538566  0.25496052  0.80427827     1.03000
O249        O  0.36924739  0.22410295  0.78646805    -0.77500
O250        O  0.36803517  0.17036148  0.73381086    -0.77700
C251        C  0.38861317  0.18326729  0.70080428     1.03000
O252        O  0.41085355  0.14201096  0.75459206    -0.85000
O253        O  0.47386771  0.18703650  0.80100505    -0.82000
C254        C  0.49670816  0.21383202  0.82301459     0.98500
O255        O  0.49462273  0.24243872  0.82627294    -0.82100
O256        O  0.43642766  0.22667698  0.87718255    -0.84700
C257        C  0.40427162  0.20733344  0.89001017     1.03000
O258        O  0.37836838  0.19142895  0.86315088    -0.77500
O259        O  0.37899219  0.13812015  0.81158107    -0.77600
C260        C  0.38820077  0.12301055  0.78313957     1.02900
Cr261      Cr  0.44755560  0.19503977  0.75382397     1.93700
Cr262      Cr  0.45227402  0.25041252  0.82063327     1.93200
Cr263      Cr  0.37765064  0.18316674  0.79817765     1.39100
O264        O  0.42547728  0.20957489  0.79116517    -1.22700
C265        C  0.35370987  0.18765544  0.51229542     0.16300
C266        C  0.34718818  0.19493674  0.55494061    -0.32700
C267        C  0.35775721  0.18058322  0.58922121     0.20700
C268        C  0.37266195  0.15870330  0.58110545     0.02900
C269        C  0.37857894  0.15097844  0.53869521    -0.22500
C270        C  0.36959420  0.16662019  0.50466396     0.12100
S271        S  0.34821215  0.20693790  0.46647778    -0.06100
C272        C  0.36878496  0.18754836  0.43721609    -0.09600
C273        C  0.37842788  0.16663009  0.46187934    -0.26200
S274        S  0.38749655  0.14711443  0.62607028    -0.03400
C275        C  0.37443415  0.17259682  0.65649897    -0.16800
C276        C  0.35859635  0.18862482  0.63276664    -0.14800
H277        H  0.33648560  0.21283256  0.56112917     0.20500
H278        H  0.39187304  0.13539430  0.53257612     0.16600
H279        H  0.39352737  0.15423632  0.44962774     0.19100
H280        H  0.35091311  0.20739394  0.64606262     0.12400
C281        C  0.41258574  0.23707087  0.08354274     0.16300
C282        C  0.42810915  0.24850106  0.04258793    -0.32700
C283        C  0.41003454  0.22622961  0.00704745     0.20700
C284        C  0.37729026  0.19428762  0.01156228     0.02900
C285        C  0.36161810  0.18269217  0.05293209    -0.22500
C286        C  0.38027248  0.20474745  0.08896780     0.12100
S287        S  0.43272574  0.25903810  0.13037248    -0.06100
C288        C  0.39806821  0.22401749  0.15857419    -0.09600
C289        C  0.37151821  0.19717506  0.13230792    -0.26200
S290        S  0.35983634  0.17183271  0.96329240    -0.03400
C291        C  0.39761697  0.20556350  0.93737161    -0.16800
C292        C  0.42190398  0.23255493  0.96507968    -0.14800
H293        H  0.45380161  0.27332356  0.03872689     0.20500
H294        H  0.33649920  0.15732405  0.05693175     0.16600
H295        H  0.34876765  0.17228819  0.14418530     0.19100
H296        H  0.44693994  0.25608483  0.95489487     0.12400
C297        C  0.61587633  0.42394553  0.69193654     0.16300
C298        C  0.58034099  0.40384691  0.70783771    -0.32700
C299        C  0.56502709  0.36603825  0.71090793     0.20700
C300        C  0.58413650  0.34904722  0.69836281     0.02900
C301        C  0.61972687  0.36912971  0.68308455    -0.22500
C302        C  0.63512456  0.40684158  0.68050784     0.12100
S303        S  0.63913126  0.46991885  0.68417790    -0.06100
C304        C  0.67527371  0.46585960  0.66636691    -0.09600
C305        C  0.66933162  0.43078736  0.66641214    -0.26200
S306        S  0.56109157  0.30311987  0.70463348    -0.03400
C307        C  0.52536141  0.30665361  0.72515820    -0.16800
C308        C  0.53123387  0.34180353  0.72651405    -0.14800
H309        H  0.56530617  0.41705555  0.71734046     0.20500
H310        H  0.63481967  0.35593832  0.67373331     0.16600
H311        H  0.68872547  0.42310798  0.65545944     0.19100
H312        H  0.51220647  0.34930979  0.73926905     0.12400
C313        C  0.77017554  0.57743729  0.84009561     0.16300
C314        C  0.75768112  0.56273124  0.88085786    -0.32700
C315        C  0.77607539  0.58393456  0.91668300     0.20700
C316        C  0.80522102  0.61883288  0.91271167     0.02900
C317        C  0.81782396  0.63382696  0.87137505    -0.22500
C318        C  0.79974196  0.61204232  0.83501781     0.12100
S319        S  0.75272115  0.55396644  0.79363199    -0.06100
C320        C  0.78601503  0.59049174  0.76606164    -0.09600
C321        C  0.80894550  0.61996465  0.79197000    -0.26200
S322        S  0.82346842  0.63937202  0.96161782    -0.03400
C323        C  0.79188895  0.59987923  0.98670611    -0.16800
C324        C  0.76853360  0.57300084  0.95850630    -0.14800
H325        H  0.73512196  0.53536852  0.88449707     0.20500
H326        H  0.84107939  0.66073316  0.86773812     0.16600
H327        H  0.83207014  0.64465854  0.78031597     0.19100
H328        H  0.74692751  0.54646706  0.96816899     0.12400
C329        C  0.80485636  0.63286026  0.34134574     0.16300
C330        C  0.79599770  0.64067290  0.38249973    -0.32700
C331        C  0.80811345  0.63018673  0.41914614     0.20700
C332        C  0.82836958  0.61308395  0.41474522     0.02900
C333        C  0.83747804  0.60570791  0.37393946    -0.22500
C334        C  0.82510839  0.61573117  0.33761796     0.12100
S335        S  0.78998251  0.63969788  0.29254420    -0.06100
C336        C  0.81134275  0.61916319  0.26752396    -0.09600
C337        C  0.82882535  0.60786142  0.29563494    -0.26200
S338        S  0.83703744  0.59854327  0.46199389    -0.03400
C339        C  0.81324528  0.61557032  0.48862427    -0.16800
C340        C  0.79952756  0.63195749  0.46184260    -0.14800
H341        H  0.77924461  0.65300665  0.38579839     0.20500
H342        H  0.85229189  0.59130694  0.37062164     0.16600
H343        H  0.84194372  0.59276063  0.28589352     0.19100
H344        H  0.78159093  0.64157986  0.47251446     0.12400
C345        C  0.64266365  0.41596142  0.22605249     0.16300
C346        C  0.62107834  0.38006877  0.23947841    -0.32700
C347        C  0.58525954  0.36863886  0.25117013     0.20700
C348        C  0.57165120  0.39215296  0.25117236     0.02900
C349        C  0.59336578  0.42830989  0.23761909    -0.22500
C350        C  0.62901582  0.43943396  0.22431356     0.12100
S351        S  0.68610002  0.43387988  0.20842854    -0.06100
C352        C  0.68588652  0.47323938  0.19703967    -0.09600
C353        C  0.65376845  0.47250876  0.20719262    -0.26200
S354        S  0.52715172  0.37232679  0.26682291    -0.03400
C355        C  0.52682329  0.33178531  0.27140744    -0.16800
C356        C  0.55973879  0.33411960  0.26242092    -0.14800
H357        H  0.63149150  0.36151999  0.23966799     0.20500
H358        H  0.58269061  0.44661100  0.23643108     0.16600
H359        H  0.64866833  0.49464341  0.20169500     0.19100
H360        H  0.56472335  0.31158202  0.26394168     0.12400
C361        C  0.75795235  0.35609355  0.03171629     0.16300
C362        C  0.74213718  0.37665605  0.04434734    -0.32700
C363        C  0.76535020  0.41324027  0.05483283     0.20700
C364        C  0.80270073  0.42874443  0.05298401     0.02900
C365        C  0.81854514  0.40837109  0.03922606    -0.22500
C366        C  0.79527545  0.37171371  0.02863312     0.12100
S367        S  0.73435559  0.31094169  0.01960288    -0.06100
C368        C  0.77513671  0.31308061  0.00970831    -0.09600
C369        C  0.80532859  0.34719041  0.01531592    -0.26200
S370        S  0.82603008  0.47293031  0.07009081    -0.03400
C371        C  0.78495940  0.47054641  0.07902834    -0.16800
C372        C  0.75502639  0.43720270  0.06918859    -0.14800
H373        H  0.71300484  0.36450744  0.04661759     0.20500
H374        H  0.84768511  0.42036659  0.03760780     0.16600
H375        H  0.83303480  0.35356886  0.01027212     0.19100
H376        H  0.72716103  0.43047217  0.07375838     0.12400
C377        C  0.58448335  0.22941455  0.87420648     0.16300
C378        C  0.61901981  0.24483836  0.89223341    -0.32700
C379        C  0.63455177  0.22288562  0.89551225     0.20700
C380        C  0.61631876  0.18677420  0.88255392     0.02900
C381        C  0.58158827  0.17126215  0.86427464    -0.22500
C382        C  0.56627350  0.19359677  0.86008975     0.12100
S383        S  0.56207258  0.25242083  0.86614259    -0.06100
C384        C  0.52779126  0.21366380  0.84276451    -0.09600
C385        C  0.53349369  0.18432854  0.84175527    -0.26200
S386        S  0.64018240  0.16482370  0.89041512    -0.03400
C387        C  0.67517923  0.20524679  0.90975677    -0.16800
C388        C  0.66837474  0.23367186  0.91076153    -0.14800
H389        H  0.63342997  0.27295573  0.90261922     0.20500
H390        H  0.56737999  0.14328936  0.85337468     0.16600
H391        H  0.51507114  0.15804220  0.82772338     0.19100
H392        H  0.68713150  0.26074984  0.92255896     0.12400
C393        C  0.81895842  0.23112831  0.66549207     0.16300
C394        C  0.82108456  0.24578239  0.70673730    -0.32700
C395        C  0.81512633  0.22340805  0.74240591     0.20700
C396        C  0.80870568  0.18827603  0.73771171     0.02900
C397        C  0.80724466  0.17370984  0.69613135    -0.22500
C398        C  0.81204141  0.19585288  0.66005649     0.12100
S399        S  0.82007663  0.25257014  0.61874245    -0.06100
C400        C  0.81050980  0.21360377  0.59088711    -0.09600
C401        C  0.80763714  0.18572637  0.61692613    -0.26200
S402        S  0.80054365  0.16538162  0.78588347    -0.03400
C403        C  0.80467288  0.20330626  0.81179384    -0.16800
C404        C  0.81271954  0.23202265  0.78451086    -0.14800
H405        H  0.82535205  0.27293590  0.71078264     0.20500
H406        H  0.80106753  0.14591783  0.69203399     0.16600
H407        H  0.79981118  0.15871790  0.60536112     0.19100
H408        H  0.81591399  0.25780041  0.79499014     0.12400
C409        C  0.82380138  0.19915642  0.16735105     0.16300
C410        C  0.83819236  0.21023817  0.20906975    -0.32700
C411        C  0.81649444  0.19061391  0.24431145     0.20700
C412        C  0.78219437  0.16078657  0.23836698     0.02900
C413        C  0.76832099  0.14886265  0.19655950    -0.22500
C414        C  0.78971529  0.16902221  0.16133133     0.12100
S415        S  0.84348685  0.22273201  0.12097867    -0.06100
C416        C  0.80552432  0.19162065  0.09321899    -0.09600
C417        C  0.77922011  0.16445232  0.11872398    -0.26200
S418        S  0.75793029  0.14444968  0.28520415    -0.03400
C419        C  0.79449145  0.17796679  0.31295408    -0.16800
C420        C  0.82387118  0.20017284  0.28711759    -0.14800
H421        H  0.86426955  0.23444348  0.21396815     0.20500
H422        H  0.74113195  0.12629312  0.19178062     0.16600
H423        H  0.75285672  0.14384718  0.10706865     0.19100
H424        H  0.84799228  0.22418157  0.29864567     0.12400
C425        C  0.80447700  0.38087852  0.50734607     0.16300
C426        C  0.82046920  0.41715588  0.52090023    -0.32700
C427        C  0.79722631  0.42972290  0.53433571     0.20700
C428        C  0.75984842  0.40734877  0.53346547     0.02900
C429        C  0.74398313  0.37119147  0.52047370    -0.22500
C430        C  0.76712018  0.35853619  0.50790987     0.12100
S431        S  0.82749632  0.35990415  0.48993785    -0.06100
C432        C  0.78623875  0.32066487  0.48506675    -0.09600
C433        C  0.75655321  0.32398059  0.49545453    -0.26200
S434        S  0.73602681  0.42731907  0.55001785    -0.03400
C435        C  0.77677258  0.46618982  0.55899442    -0.16800
C436        C  0.80721735  0.46371471  0.54965487    -0.14800
H437        H  0.84961302  0.43466804  0.52124023     0.20500
H438        H  0.71483676  0.35358039  0.52048386     0.16600
H439        H  0.72862696  0.30219634  0.49376955     0.19100
H440        H  0.83490876  0.48545845  0.55386595     0.12400
C441        C  0.61359949  0.19318370  0.38215548     0.16300
C442        C  0.57718321  0.17829160  0.37000020    -0.30300
C443        C  0.56337954  0.20193939  0.36628918     0.20700
C444        C  0.58480891  0.23875783  0.37489655     0.02900
C445        C  0.62144613  0.25382108  0.38609565    -0.22500
C446        C  0.63533697  0.23020172  0.38915085     0.12100
S447        S  0.63497772  0.16878615  0.39028217    -0.06100
C448        C  0.67392389  0.20899794  0.40159490    -0.09600
C449        C  0.67015835  0.23950750  0.39974276    -0.26200
S450        S  0.56270458  0.26264463  0.37013646    -0.03400
C451        C  0.52428614  0.22274551  0.35557442    -0.16800
C452        C  0.52870585  0.19264701  0.35452542    -0.14800
H453        H  0.56027034  0.14947043  0.36398542     0.20500
H454        H  0.63832297  0.28263004  0.39231322     0.16600
H455        H  0.69153101  0.26688704  0.40703938     0.19100
H456        H  0.50774677  0.16551717  0.34560076     0.12400
C457        C  0.68416804  0.65855482  0.61705193     0.16300
C458        C  0.66572403  0.67652339  0.62979531    -0.32700
C459        C  0.65485218  0.69178351  0.59722437     0.20700
C460        C  0.66247433  0.68990709  0.55391810     0.02900
C461        C  0.68032277  0.67131785  0.54108229    -0.22500
C462        C  0.69064181  0.65549594  0.57362136     0.12100
S463        S  0.70089236  0.63941839  0.65170905    -0.06100
C464        C  0.71567012  0.62620639  0.60704709    -0.09600
C465        C  0.70832245  0.63648740  0.56767149    -0.26200
S466        S  0.64868352  0.71207823  0.51974551    -0.03400
C467        C  0.63157060  0.72293669  0.56428407    -0.16800
C468        C  0.63673890  0.71032061  0.60327291    -0.14800
H469        H  0.66030822  0.67874552  0.66360223     0.20500
H470        H  0.68611797  0.66946235  0.50732133     0.16600
H471        H  0.71643038  0.63119065  0.53646009     0.19100
H472        H  0.62836898  0.71520058  0.63454608     0.12400
C473        C  0.67118192  0.02887954  0.47510984     0.16300
C474        C  0.64800943  0.99210876  0.46484026    -0.32700
C475        C  0.64166270  0.96640011  0.49702664     0.20700
C476        C  0.65764372  0.97688115  0.53755544     0.02900
C477        C  0.67970060  0.01360557  0.54825835    -0.22500
C478        C  0.68607406  0.03924959  0.51619082     0.12100
S479        S  0.68534463  0.06413316  0.43959696    -0.06100
C480        C  0.71084992  0.09293808  0.48091784    -0.09600
C481        C  0.70832585  0.07604707  0.51990082    -0.26200
S482        S  0.64976025  0.94173060  0.57066670    -0.03400
C483        C  0.62411896  0.91242308  0.52987876    -0.16800
C484        C  0.62178505  0.92931689  0.49270081    -0.14800
H485        H  0.63641843  0.98383585  0.43277931     0.20500
H486        H  0.69233961  0.02180266  0.57981982     0.16600
H487        H  0.72321140  0.08986217  0.54889843     0.19100
H488        H  0.60774553  0.91522770  0.46340494     0.12400
C489        C  0.64168376  0.67281273  0.06898239     0.16300
C490        C  0.64986844  0.64521279  0.06074341    -0.32700
C491        C  0.67536004  0.64338863  0.08775717     0.20700
C492        C  0.69174441  0.66784988  0.12155338     0.02900
C493        C  0.68328830  0.69511339  0.13007522    -0.22500
C494        C  0.65804025  0.69706772  0.10299451     0.12100
S495        S  0.61280228  0.68081590  0.03888244    -0.06100
C496        C  0.62290972  0.71697736  0.07266014    -0.09600
C497        C  0.64724966  0.72241750  0.10533816    -0.26200
S498        S  0.72328416  0.66255757  0.14921934    -0.03400
C499        C  0.71455147  0.62695436  0.11500489    -0.16800
C500        C  0.68818864  0.61960116  0.08398742    -0.14800
H501        H  0.63743466  0.62643693  0.03399309     0.20500
H502        H  0.69636363  0.71442219  0.15619983     0.16600
H503        H  0.65698766  0.74417281  0.12902678     0.19100
H504        H  0.67985196  0.59890446  0.05910180     0.12400
C505        C  0.68061631  0.02715785  0.96498299     0.16300
C506        C  0.65886441  0.99053172  0.95365025    -0.32700
C507        C  0.65006940  0.96481991  0.98644249     0.20700
C508        C  0.66240219  0.97501069  0.02854912     0.02900
C509        C  0.68336417  0.01158068  0.04007809    -0.22500
C510        C  0.69202003  0.03723536  0.00740484     0.12100
S511        S  0.69614309  0.06264435  0.92970028    -0.06100
C512        C  0.71742816  0.09103018  0.97295037    -0.09600
C513        C  0.71271036  0.07390721  0.01224048    -0.26200
S514        S  0.65109078  0.93975052  0.06289207    -0.03400
C515        C  0.62914773  0.91095731  0.02016891    -0.16800
C516        C  0.63049224  0.92797605  0.98157689    -0.14800
H517        H  0.64980418  0.98240268  0.92064759     0.20500
H518        H  0.69308310  0.01967578  0.07288618     0.16600
H519        H  0.72453338  0.08763333  0.04256925     0.19100
H520        H  0.61896205  0.91412151  0.95123557     0.12400
C521        C  0.64293335  0.83226583  0.76058405     0.16300
C522        C  0.65012646  0.84825002  0.80213972    -0.32700
C523        C  0.64178480  0.82523824  0.83818736     0.20700
C524        C  0.62817153  0.78826927  0.83283643     0.02900
C525        C  0.62226155  0.77262361  0.79152056    -0.22500
C526        C  0.62918380  0.79524233  0.75577863     0.12100
S527        S  0.64495954  0.85389220  0.71298220    -0.06100
C528        C  0.62624799  0.81237283  0.68705150    -0.09600
C529        C  0.61981662  0.78383290  0.71382720    -0.26200
S530        S  0.61425022  0.76389526  0.87953181    -0.03400
C531        C  0.62661582  0.80364550  0.90708192    -0.16800
C532        C  0.64139458  0.83432649  0.88106102    -0.14800
H533        H  0.65938645  0.87685718  0.80626533     0.20500
H534        H  0.61016993  0.74354846  0.78748992     0.16600
H535        H  0.60661143  0.75569263  0.70353782     0.19100
H536        H  0.64796594  0.86110334  0.89224641     0.12400
C537        C  0.58500801  0.81424971  0.25970049     0.16300
C538        C  0.56974856  0.81153289  0.30044204    -0.32700
C539        C  0.58922392  0.81123032  0.33642753     0.20700
C540        C  0.62324102  0.81482299  0.33264825     0.02900
C541        C  0.63874978  0.81755053  0.29133519    -0.22500
C542        C  0.61846922  0.81664360  0.25473123     0.12100
S543        S  0.56316070  0.81151153  0.21292902    -0.06100
C544        C  0.59845864  0.81208535  0.18513143    -0.09600
C545        C  0.62660790  0.81563632  0.21144719    -0.26200
S546        S  0.64198522  0.81417907  0.38170112    -0.03400
C547        C  0.60275575  0.80757802  0.40650763    -0.16800
C548        C  0.57732701  0.80673690  0.37817023    -0.14800
H549        H  0.54312037  0.80857321  0.30386758     0.20500
H550        H  0.66483738  0.81929992  0.28786529     0.16600
H551        H  0.65030450  0.81507538  0.19986952     0.19100
H552        H  0.55129533  0.80320680  0.38772988     0.12400
C553        C  0.02924809  0.34870829  0.94578073     0.16300
C554        C  0.99678460  0.33193391  0.96942535    -0.32700
C555        C  0.96420472  0.31766839  0.94623002     0.20700
C556        C  0.96404612  0.32129125  0.90164591     0.02900
C557        C  0.99649925  0.33784733  0.87798410    -0.22500
C558        C  0.02903469  0.35082391  0.90099870     0.12100
S559        S  0.07144195  0.36638448  0.96776889    -0.06100
C560        C  0.08897180  0.37538076  0.91601685    -0.09600
C561        C  0.06326565  0.36572910  0.88362720    -0.26200
S562        S  0.92180705  0.30228515  0.87943787    -0.03400
C563        C  0.90414114  0.28795386  0.93045019    -0.16800
C564        C  0.92980888  0.29810994  0.96295144    -0.14800
H565        H  0.99690609  0.32931391  0.00425524     0.20500
H566        H  0.99632968  0.33969456  0.84305587     0.16600
H567        H  0.06928919  0.36934131  0.84934278     0.19100
H568        H  0.92363285  0.29113441  0.99676274     0.12400
C569        C  0.28882717  0.31726142  0.84777546     0.16300
C570        C  0.29201581  0.28614284  0.84410120    -0.32700
C571        C  0.32417101  0.29011765  0.82663676     0.20700
C572        C  0.35224324  0.32371866  0.81393526     0.02900
C573        C  0.34867085  0.35479066  0.81659949    -0.22500
C574        C  0.31622206  0.35073542  0.83369502     0.12100
S575        S  0.25219467  0.31790426  0.86894431    -0.06100
C576        C  0.27330321  0.36369529  0.85789865    -0.09600
C577        C  0.30731892  0.37752537  0.83901686    -0.26200
S578        S  0.39035356  0.32314705  0.79748027    -0.03400
C579        C  0.36769195  0.27702823  0.80663005    -0.16800
C580        C  0.33263559  0.26316146  0.82177488    -0.14800
H581        H  0.27048229  0.25998914  0.85486507     0.20500
H582        H  0.37041047  0.38102862  0.80641616     0.16600
H583        H  0.32444611  0.40551378  0.82947405     0.19100
H584        H  0.31496203  0.23513684  0.83087201     0.12400
C585        C  0.35869013  0.59168773  0.95842095     0.16300
C586        C  0.37894533  0.62793974  0.97173538    -0.32700
C587        C  0.41671933  0.64434811  0.97056155     0.20700
C588        C  0.43378881  0.62559827  0.95679530     0.02900
C589        C  0.41343724  0.58953458  0.94211141    -0.22500
C590        C  0.37546937  0.57298923  0.94345896     0.12100
S591        S  0.31262641  0.56684571  0.95923768    -0.06100
C592        C  0.31559429  0.53069378  0.93876143    -0.09600
C593        C  0.35076980  0.53790642  0.93168133    -0.26200
S594        S  0.47996441  0.64955196  0.96220229    -0.03400
C595        C  0.47587617  0.68517023  0.98224227    -0.16800
C596        C  0.44076345  0.67872500  0.98442147    -0.14800
H597        H  0.36580940  0.64250347  0.98342729     0.20500
H598        H  0.42656724  0.57474989  0.93124150     0.16600
H599        H  0.35783681  0.51870439  0.91828566     0.19100
H600        H  0.43314651  0.69759075  0.99764884     0.12400
C601        C  0.02606443  0.35935475  0.43700490     0.16300
C602        C  0.99317759  0.34232852  0.45998129    -0.32700
C603        C  0.96103294  0.32228749  0.43609913     0.20700
C604        C  0.96160220  0.32070159  0.39125375     0.02900
C605        C  0.99439680  0.33762202  0.36838078    -0.22500
C606        C  0.02655513  0.35626821  0.39231368     0.12100
S607        S  0.06818063  0.38319328  0.45988925    -0.06100
C608        C  0.08654532  0.38761429  0.40890330    -0.09600
C609        C  0.06115513  0.37205186  0.37607331    -0.26200
S610        S  0.92000873  0.29517324  0.36800528    -0.03400
C611        C  0.90159841  0.28499914  0.41920796    -0.16800
C612        C  0.92656277  0.30149025  0.45244051    -0.14800
H613        H  0.99276012  0.34372808  0.49497700     0.20500
H614        H  0.99487254  0.33540511  0.33347059     0.16600
H615        H  0.06769512  0.37194842  0.34218836     0.19100
H616        H  0.91988427  0.29819672  0.48657363     0.12400
C617        C  0.33979086  0.32461691  0.36563987     0.16300
C618        C  0.32449733  0.34150410  0.39004121    -0.32700
C619        C  0.30696595  0.35681769  0.36747966     0.20700
C620        C  0.30539987  0.35589683  0.32259758     0.02900
C621        C  0.31997839  0.33834461  0.29829439    -0.22500
C622        C  0.33695588  0.32252792  0.32086494     0.12100
S623        S  0.36257694  0.30487225  0.38679895    -0.06100
C624        C  0.36758183  0.29291162  0.33487391    -0.09600
C625        C  0.35242623  0.30390414  0.30301515    -0.26200
S626        S  0.28435845  0.37719197  0.30104163    -0.03400
C627        C  0.27655106  0.38654773  0.35299874    -0.16800
C628        C  0.28986443  0.37394559  0.38526080    -0.14800
H629        H  0.32618681  0.34263852  0.42503069     0.20500
H630        H  0.31818812  0.33710964  0.26330962     0.16600
H631        H  0.35282969  0.29867092  0.26872453     0.19100
H632        H  0.28737803  0.37734427  0.41963461     0.12400
C633        C  0.21869159  0.42880783  0.59656453     0.16300
C634        C  0.22808880  0.44245970  0.63843580    -0.32700
C635        C  0.21199870  0.41836502  0.67253103     0.20700
C636        C  0.18820981  0.38173380  0.66600449     0.02900
C637        C  0.17883360  0.36772556  0.62338467    -0.22500
C638        C  0.19436991  0.39240100  0.58866792     0.12100
S639        S  0.23364836  0.45532520  0.55211497    -0.06100
C640        C  0.20624452  0.41761977  0.52127839    -0.09600
C641        C  0.18715825  0.38562647  0.54485135    -0.26200
S642        S  0.17215746  0.35791983  0.71371515    -0.03400
C643        C  0.19728915  0.39835596  0.74171307    -0.16800
C644        C  0.21706715  0.42787040  0.71501269    -0.14800
H645        H  0.24648622  0.47109487  0.64425920     0.20500
H646        H  0.15972223  0.33929179  0.61759986     0.16600
H647        H  0.16797917  0.35950785  0.53106726     0.19100
H648        H  0.23478863  0.45544120  0.72613395     0.12400
C649        C  0.16636451  0.37423631  0.16831352     0.16300
C650        C  0.15115323  0.36680594  0.12663113    -0.32700
C651        C  0.17374059  0.37027687  0.09155282     0.20700
C652        C  0.20971971  0.38013094  0.09777525     0.02900
C653        C  0.22461699  0.38649693  0.13947379    -0.22500
C654        C  0.20226492  0.38374024  0.17437580     0.12100
S655        S  0.14510864  0.37653340  0.21445094    -0.06100
C656        C  0.18504557  0.39045695  0.24189374    -0.09600
C657        C  0.21301119  0.39287868  0.21654348    -0.26200
S658        S  0.23414399  0.38864285  0.05107396    -0.03400
C659        C  0.19552826  0.37868943  0.02271423    -0.16800
C660        C  0.16532199  0.36884683  0.04842668    -0.14800
H661        H  0.12351726  0.36059375  0.12152760     0.20500
H662        H  0.25300454  0.39536296  0.14428516     0.16600
H663        H  0.24041571  0.40289314  0.22797144     0.19100
H664        H  0.13966611  0.36470588  0.03645757     0.12400
C665        C  0.42651240  0.62536181  0.47996925     0.16300
C666        C  0.40498581  0.59006887  0.46297468    -0.32700
C667        C  0.36926262  0.57946529  0.45039744     0.20700
C668        C  0.35555321  0.60269411  0.45567382     0.02900
C669        C  0.37698929  0.63775375  0.47228999    -0.22500
C670        C  0.41271103  0.64859938  0.48371068     0.12100
S671        S  0.47071892  0.64427697  0.49672925    -0.06100
C672        C  0.47053543  0.68407624  0.50729833    -0.09600
C673        C  0.43774687  0.68215083  0.49895486    -0.26200
S674        S  0.31178473  0.58523739  0.43957495    -0.03400
C675        C  0.31170972  0.54628689  0.42419173    -0.16800
C676        C  0.34414744  0.54690097  0.43185492    -0.14800
H677        H  0.41569170  0.57191319  0.45926413     0.20500
H678        H  0.36637246  0.65601732  0.47568574     0.16600
H679        H  0.43242490  0.70425221  0.50398641     0.19100
H680        H  0.34896701  0.52477916  0.42450881     0.12400
C681        C  0.32054169  0.96629622  0.72272588     0.16300
C682        C  0.34631352  0.00274342  0.71485100    -0.32700
C683        C  0.35162748  0.02844849  0.74704649     0.20700
C684        C  0.33223476  0.01844675  0.78545149     0.02900
C685        C  0.30719354  0.98186283  0.79386127    -0.22500
C686        C  0.30189248  0.95615881  0.76165815     0.12100
S687        S  0.30855043  0.93114070  0.68685264    -0.06100
C688        C  0.27867557  0.90246430  0.72510696    -0.09600
C689        C  0.27825649  0.91948957  0.76341002    -0.26200
S690        S  0.34048469  0.05422673  0.81863381    -0.03400
C691        C  0.37064864  0.08299306  0.78048965    -0.16800
C692        C  0.37402345  0.06529854  0.74432689    -0.14800
H693        H  0.36099447  0.01084379  0.68454219     0.20500
H694        H  0.29191473  0.97386337  0.82376680     0.16600
H695        H  0.26112962  0.90569659  0.79091430     0.19100
H696        H  0.39077383  0.07884284  0.71648297     0.12400
C697        C  0.96482178  0.66845117  0.66082092     0.16300
C698        C  0.99877203  0.69943084  0.66603192    -0.32700
C699        C  0.02850123  0.69457257  0.67178512     0.20700
C700        C  0.02487377  0.66033583  0.67183702     0.02900
C701        C  0.99051811  0.62902303  0.66763367    -0.22500
C702        C  0.96047533  0.63392346  0.66231887     0.12100
S703        S  0.92620996  0.66954263  0.65149461    -0.06100
C704        C  0.90332004  0.62291763  0.65016444    -0.09600
C705        C  0.92474846  0.60733541  0.65698457    -0.26200
S706        S  0.06519355  0.66098153  0.67651461    -0.03400
C707        C  0.08654727  0.70771278  0.67963146    -0.16800
C708        C  0.06359762  0.72170742  0.67682618    -0.14800
H709        H  0.00194057  0.72629202  0.66510515     0.20500
H710        H  0.98742353  0.60218975  0.66793440     0.16600
H711        H  0.91492943  0.57844907  0.65697035     0.19100
H712        H  0.07229141  0.75036668  0.67730895     0.12400
C713        C  0.18628123  0.56299773  0.81024115     0.16300
C714        C  0.16966442  0.58095579  0.79113166    -0.32700
C715        C  0.19020125  0.61905447  0.78794717     0.20700
C716        C  0.22531480  0.63809979  0.80381747     0.02900
C717        C  0.24201941  0.62020391  0.82195927    -0.22500
C718        C  0.22190686  0.58236622  0.82435570     0.12100
S719        S  0.16610515  0.51720683  0.81903568    -0.06100
C720        C  0.20658348  0.52456127  0.84049548    -0.09600
C721        C  0.23384745  0.56048164  0.84096982    -0.26200
S722        S  0.24593574  0.68382662  0.79788365    -0.03400
C723        C  0.20747642  0.67782236  0.77230435    -0.16800
C724        C  0.17977784  0.64181485  0.76935817    -0.14800
H725        H  0.14207524  0.56596173  0.77935222     0.20500
H726        H  0.26964986  0.63519339  0.83363374     0.16600
H727        H  0.26069606  0.57018328  0.85409938     0.19100
H728        H  0.15394261  0.63278777  0.75371909     0.12400
C729        C  0.43055670  0.80619612  0.63295168     0.16300
C730        C  0.40886557  0.82104655  0.64484240    -0.32700
C731        C  0.37185321  0.79692252  0.65194681     0.20700
C732        C  0.35710271  0.75978655  0.64650540     0.02900
C733        C  0.37879220  0.74494942  0.63513943    -0.22500
C734        C  0.41583514  0.76896017  0.62902010     0.12100
S735        S  0.47573331  0.83074693  0.62115349    -0.06100
C736        C  0.47485524  0.79034052  0.61212821    -0.09600
C737        C  0.44120738  0.75966993  0.61768870    -0.26200
S738        S  0.31172463  0.73499072  0.65558045    -0.03400
C739        C  0.31252663  0.77487310  0.66809475    -0.16800
C740        C  0.34634802  0.80580759  0.66476670    -0.14800
H741        H  0.42031662  0.85007462  0.64835785     0.20500
H742        H  0.36729024  0.71592945  0.63131602     0.16600
H743        H  0.43530351  0.73213112  0.61176830     0.19100
H744        H  0.35194102  0.83313090  0.67145386     0.12400
C745        C  0.31752798  0.04187218  0.24578502     0.16300
C746        C  0.28716182  0.00764949  0.23733848    -0.32700
C747        C  0.29317945  0.97895034  0.22677120     0.20700
C748        C  0.32789741  0.98402293  0.22518116     0.02900
C749        C  0.35833699  0.01849034  0.23268609    -0.22500
C750        C  0.35235962  0.04733392  0.24282523     0.12100
S751        S  0.31574643  0.07959710  0.26090472    -0.06100
C752        C  0.36247543  0.10339430  0.26261387    -0.09600
C753        C  0.37837223  0.08281285  0.25174936    -0.26200
S754        S  0.32922909  0.94509363  0.21509582    -0.03400
C755        C  0.28255805  0.92181746  0.21190464    -0.16800
C756        C  0.26711304  0.94348086  0.21857374    -0.14800
H757        H  0.25999012  0.00346822  0.23950036     0.20500
H758        H  0.38547258  0.02252164  0.23131378     0.16600
H759        H  0.40728034  0.09305460  0.25124123     0.19100
H760        H  0.23824469  0.93349958  0.21918921     0.12400
C761        C  0.97161395  0.65811403  0.12829186     0.16300
C762        C  0.00774338  0.67489342  0.11429126    -0.32700
C763        C  0.03498720  0.69150970  0.14582335     0.20700
C764        C  0.02666914  0.69183300  0.18920818     0.02900
C765        C  0.99064138  0.67446919  0.20325549    -0.22500
C766        C  0.96346415  0.65745471  0.17190004     0.12100
S767        S  0.93442917  0.63798783  0.09520853    -0.06100
C768        C  0.90787138  0.62779768  0.14086608    -0.09600
C769        C  0.92695052  0.63962375  0.17932988    -0.26200
S770        S  0.06342271  0.71534318  0.22209024    -0.03400
C771        C  0.09041020  0.72417606  0.17712549    -0.16800
C772        C  0.07164127  0.70970126  0.13875907    -0.14800
H773        H  0.01432646  0.67537026  0.08033103     0.20500
H774        H  0.98405637  0.67455809  0.23712201     0.16600
H775        H  0.91467726  0.63635677  0.21095858     0.19100
H776        H  0.08414628  0.71323810  0.10724088     0.12400
C777        C  0.20546894  0.83840072  0.98229572     0.16300
C778        C  0.22029333  0.84860612  0.94079288    -0.32700
C779        C  0.19796617  0.83034810  0.90535804     0.20700
C780        C  0.16202580  0.80370541  0.91069089     0.02900
C781        C  0.14676431  0.79431590  0.95235940    -0.22500
C782        C  0.16949500  0.81196064  0.98804216     0.12100
S783        S  0.23018856  0.85262040  0.02891954    -0.06100
C784        C  0.19180874  0.82294713  0.05689713    -0.09600
C785        C  0.16139267  0.80321556  0.03104204    -0.26200
S786        S  0.14127267  0.78127240  0.86366971    -0.03400
C787        C  0.18157050  0.80803153  0.83704403    -0.16800
C788        C  0.20912937  0.83310755  0.86326111    -0.14800
H789        H  0.24873294  0.86821313  0.93640587     0.20500
H790        H  0.11913809  0.77259789  0.95687602     0.16600
H791        H  0.13578364  0.78127485  0.04260496     0.19100
H792        H  0.23679203  0.85046926  0.85260724     0.12400
C793        C  0.18929239  0.81035083  0.41226082     0.16300
C794        C  0.17644057  0.81157587  0.45419950    -0.32700
C795        C  0.19249634  0.80426883  0.48992459     0.20700
C796        C  0.21995784  0.79627596  0.48365276     0.02900
C797        C  0.23263462  0.79515802  0.44230530    -0.22500
C798        C  0.21669658  0.80220994  0.40708554     0.12100
S799        S  0.17410288  0.81791682  0.36386579    -0.06100
C800        C  0.20507544  0.80973234  0.33710040    -0.09600
C801        C  0.22565182  0.80174197  0.36472534    -0.26200
S802        S  0.23551130  0.78687521  0.52947998    -0.03400
C803        C  0.20476900  0.79338883  0.55862943    -0.16800
C804        C  0.18371027  0.80291451  0.53340568    -0.14800
H805        H  0.15484374  0.81763196  0.45873073     0.20500
H806        H  0.25392009  0.78863637  0.43771841     0.16600
H807        H  0.24645678  0.79585469  0.35433375     0.19100
H808        H  0.16247446  0.80731530  0.54591292     0.12400
C809        C  0.18515692  0.57971052  0.28687210     0.16300
C810        C  0.17036733  0.60043361  0.27103128    -0.32700
C811        C  0.19461601  0.63673511  0.25973892     0.20700
C812        C  0.23173929  0.65154484  0.26429947     0.02900
C813        C  0.24642388  0.63070482  0.27898144    -0.22500
C814        C  0.22236919  0.59461889  0.28992871     0.12100
S815        S  0.16091463  0.53588300  0.30510859    -0.06100
C816        C  0.20155609  0.53785457  0.31579503    -0.09600
C817        C  0.23186004  0.57069563  0.30579063    -0.26200
S818        S  0.25682883  0.69613432  0.25099771    -0.03400
C819        C  0.21712193  0.69513991  0.23817798    -0.16800
C820        C  0.18599549  0.66168693  0.24414063    -0.14800
H821        H  0.14135614  0.58898910  0.26825459     0.20500
H822        H  0.27542735  0.64229219  0.28228421     0.16600
H823        H  0.25954493  0.57717054  0.31128548     0.19100
H824        H  0.15871850  0.65604655  0.23764862     0.12400
C825        C  0.35469766  0.77118108  0.10542157     0.16300
C826        C  0.37495012  0.75429054  0.09613178    -0.32700
C827        C  0.41227768  0.77657362  0.08945732     0.20700
C828        C  0.42866206  0.81408859  0.09084794     0.02900
C829        C  0.40842448  0.83101293  0.10069291    -0.22500
C830        C  0.37114075  0.80865696  0.10840181     0.12100
S831        S  0.30936671  0.74872087  0.11584505    -0.06100
C832        C  0.31255326  0.79012394  0.12580264    -0.09600
C833        C  0.34707785  0.81973378  0.12045126    -0.26200
S834        S  0.47408544  0.83617936  0.07974743    -0.03400
C835        C  0.47105447  0.79438325  0.07451215    -0.16800
C836        C  0.43651251  0.76513081  0.08068438    -0.14800
H837        H  0.36220960  0.72500519  0.09461530     0.20500
H838        H  0.42122012  0.86028046  0.10260081     0.16600
H839        H  0.35432380  0.84769169  0.12610935     0.19100
H840        H  0.42934572  0.73694321  0.07776132     0.12400
loop_ 
_geom_bond_atom_site_label_1 
_geom_bond_atom_site_label_2 
_geom_bond_distance 
_geom_bond_site_symmetry_2 
_ccdc_geom_bond_type 
O1          Cr19   1.958       .  S
O1            C9   1.263       .  A
O2          Cr19   2.006       .  S
O2            C3   1.260       .  A
C3            O4   1.258       .  A
C3          C832   1.475       .  S
O4          Cr20   1.992       .  S
O5          Cr20   2.006       .  S
O5            C6   1.265       .  A
C6            O7   1.261       .  A
C6          C755   1.483       .  S
O7          Cr21   1.985       .  S
O8          Cr21   2.050       .  S
O8            C9   1.279       .  A
C9          C784   1.469       .  S
O10         Cr19   2.002       .  S
O10          C18   1.256       .  A
O11         Cr19   1.983       .  S
O11          C12   1.265       .  A
C12          O13   1.273       .  A
C12         C819   1.472       .  S
O13         Cr20   2.020       .  S
O14         Cr20   1.962       .  S
O14          C15   1.259       .  A
C15          O16   1.270       .  A
C15         C800   1.487       .  S
O16         Cr21   2.031       .  S
O17         Cr21   1.984       .  S
O17          C18   1.253       .  A
C18         C771   1.470       .  S
Cr19         O22   1.781       .  S
Cr20         O22   1.770       .  S
Cr21         O22   1.781       .  S
O23         Cr41   1.969       .  S
O23          C31   1.262       .  A
O24         Cr41   2.003       .  S
O24          C25   1.263       .  A
C25          O26   1.260       .  A
C25         C723   1.478       .  S
O26         Cr42   1.993       .  S
O27         Cr42   1.998       .  S
O27          C28   1.262       .  A
C28          O29   1.261       .  A
C28         C707   1.469       .  S
O29         Cr43   1.976       .  S
O30         Cr43   2.036       .  S
O30          C31   1.273       .  A
C31         C787   1.469       .  S
O32         Cr41   2.002       .  S
O32          C40   1.259       .  A
O33         Cr41   1.990       .  S
O33          C34   1.265       .  A
C34          O35   1.266       .  A
C34         C739   1.470       .  S
O35         Cr42   2.004       .  S
O36         Cr42   1.969       .  S
O36          C37   1.259       .  A
C37          O38   1.269       .  A
C37         C803   1.484       .  S
O38         Cr43   2.035       .  S
O39         Cr43   1.999       .  S
O39          C40   1.261       .  A
C40         C688   1.473       .  S
Cr41         O44   1.773       .  S
Cr42         O44   1.775       .  S
Cr43         O44   1.782       .  S
O45         Cr63   1.970       .  S
O45          C53   1.261       .  A
O46         Cr63   2.013       .  S
O46          C47   1.268       .  A
C47          O48   1.262       .  A
C47         C816   1.472       .  S
O48         Cr64   1.988       .  S
O49         Cr64   2.011       .  S
O49          C50   1.262       .  A
C50          O51   1.260       .  A
C50         C608   1.475       .  S
O51         Cr65   1.990       .  S
O52         Cr65   2.031       .  S
O52          C53   1.272       .  A
C53         C656   1.468       .  S
O54         Cr63   1.998       .  S
O54          C62   1.261       .  A
O55         Cr63   1.995       .  S
O55          C56   1.262       .  A
C56          O57   1.266       .  A
C56         C675   1.476       .  S
O57         Cr64   2.011       .  S
O58         Cr64   1.953       .  S
O58          C59   1.258       .  A
C59          O60   1.273       .  A
C59         C640   1.478       .  S
O60         Cr65   2.042       .  S
O61         Cr65   1.991       .  S
O61          C62   1.260       .  A
C62         C627   1.468       .  S
Cr63         O66   1.768       .  S
Cr64         O66   1.766       .  S
Cr65         O66   1.773       .  S
O67         Cr85   1.940       .  S
O67          C75   1.254       .  A
O68         Cr85   2.034       .  S
O68          C69   1.275       .  A
C69          O70   1.263       .  A
C69         C720   1.471       .  S
O70         Cr86   1.978       .  S
O71         Cr86   2.005       .  S
O71          C72   1.259       .  A
C72          O73   1.260       .  A
C72         C560   1.474       .  S
O73         Cr87   2.000       .  S
O74         Cr87   2.044       .  S
O74          C75   1.271       .  A
C75         C643   1.483       .  S
O76         Cr85   2.025       .  S
O76          C84   1.269       .  A
O77         Cr85   1.982       .  S
O77          C78   1.256       .  A
C78          O79   1.262       .  A
C78         C592   1.474       .  S
O79         Cr86   2.010       .  S
O80         Cr86   1.961       .  S
O80          C81   1.262       .  A
C81          O82   1.279       .  A
C81         C659   1.466   1_556  S
O82         Cr87   2.048       .  S
O83         Cr87   1.971       .  S
O83          C84   1.260       .  A
C84         C576   1.482       .  S
Cr85         O88   1.766       .  S
Cr86         O88   1.767       .  S
Cr87         O88   1.775       .  S
O89        Cr107   1.965       .  S
O89          C97   1.259       .  A
O90        Cr107   2.015       .  S
O90          C91   1.266   1_556  A
C91          O92   1.258       .  A
C91         C595   1.464   1_554  S
O92        Cr108   1.979       .  S
O93        Cr108   2.016       .  S
O93          C94   1.266       .  A
C94          O95   1.258       .  A
C94         C496   1.465       .  S
O95        Cr109   1.976       .  S
O96        Cr109   2.045   1_556  S
O96          C97   1.274       .  A
C97         C531   1.472       .  S
O98        Cr107   2.004       .  S
O98         C106   1.264   1_556  A
O99        Cr107   1.980   1_554  S
O99         C100   1.260       .  A
C100        O101   1.270       .  A
C100        C835   1.475       .  S
O101       Cr108   2.027       .  S
O102       Cr108   1.956       .  S
O102        C103   1.257       .  A
C103        O104   1.273       .  A
C103        C544   1.479       .  S
O104       Cr109   2.048       .  S
O105       Cr109   1.974       .  S
O105        C106   1.258       .  A
C106        C515   1.463       .  S
Cr107       O110   1.764   1_556  S
Cr108       O110   1.759       .  S
Cr109       O110   1.772       .  S
O111       Cr129   1.961       .  S
O111        C119   1.260       .  A
O112       Cr129   2.016       .  S
O112        C113   1.268       .  A
C113        O114   1.261       .  A
C113        C672   1.476       .  S
O114       Cr130   1.989       .  S
O115       Cr130   2.002       .  S
O115        C116   1.264       .  A
C116        O117   1.259       .  A
C116        C467   1.466       .  S
O117       Cr131   1.982       .  S
O118       Cr131   2.034       .  S
O118        C119   1.271       .  A
C119        C547   1.476       .  S
O120       Cr129   2.011       .  S
O120        C128   1.264       .  A
O121       Cr129   1.974       .  S
O121        C122   1.258       .  A
C122        O123   1.268       .  A
C122        C736   1.468       .  S
O123       Cr130   2.022       .  S
O124       Cr130   1.973       .  S
O124        C125   1.262       .  A
C125        O126   1.271       .  A
C125        C528   1.473       .  S
O126       Cr131   2.032       .  S
O127       Cr131   1.982       .  S
O127        C128   1.259       .  A
C128        C483   1.473       .  S
Cr129       O132   1.766       .  S
Cr130       O132   1.772       .  S
Cr131       O132   1.772       .  S
O133       Cr151   1.971       .  S
O133        C141   1.260       .  A
O134       Cr151   2.018       .  S
O134        C135   1.265       .  A
C135        O136   1.260       .  A
C135        C448   1.471       .  S
O136       Cr152   1.984       .  S
O137       Cr152   2.014       .  S
O137        C138   1.266       .  A
C138        O139   1.260       .  A
C138        C480   1.467       .  S
O139       Cr153   1.983       .  S
O140       Cr153   2.034       .  S
O140        C141   1.272       .  A
C141        C419   1.466       .  S
O142       Cr151   2.011       .  S
O142        C150   1.265       .  A
O143       Cr151   1.971       .  S
O143        C144   1.258       .  A
C144        O145   1.267       .  A
C144        C432   1.457       .  S
O145       Cr152   2.004       .  S
O146       Cr152   1.964       .  S
O146        C147   1.256       .  A
C147        O148   1.270       .  A
C147        C400   1.477       .  S
O148       Cr153   2.041       .  S
O149       Cr153   1.997       .  S
O149        C150   1.263       .  A
C150        C611   1.475       .  S
Cr151       O154   1.764       .  S
Cr152       O154   1.761       .  S
Cr153       O154   1.767       .  S
O155       Cr173   1.963       .  S
O155        C163   1.259       .  A
O156       Cr173   2.011       .  S
O156        C157   1.267       .  A
C157        O158   1.258       .  A
C157        C387   1.458       .  S
O158       Cr174   1.974       .  S
O159       Cr174   1.996       .  S
O159        C160   1.261       .  A
C160        O161   1.258       .  A
C160        C512   1.458       .  S
O161       Cr175   1.986       .  S
O162       Cr175   2.033       .  S
O162        C163   1.270       .  A
C163        C403   1.474       .  S
O164       Cr173   2.005       .  S
O164        C172   1.264       .  A
O165       Cr173   1.980       .  S
O165        C166   1.259       .  A
C166        O167   1.265   1_556  A
C166        C368   1.469   1_556  S
O167       Cr174   2.013   1_554  S
O168       Cr174   1.968   1_554  S
O168        C169   1.261       .  A
C169        O170   1.273       .  A
C169        C416   1.468       .  S
O170       Cr175   2.036   1_554  S
O171       Cr175   1.987       .  S
O171        C172   1.262       .  A
C172        C563   1.470       .  S
Cr173       O176   1.766       .  S
Cr174       O176   1.769       .  S
Cr175       O176   1.767       .  S
O177       Cr195   1.951       .  S
O177        C185   1.258       .  A
O178       Cr195   2.026       .  S
O178        C179   1.271       .  A
C179        O180   1.260       .  A
C179        C371   1.472       .  S
O180       Cr196   1.976       .  S
O181       Cr196   2.008       .  S
O181        C182   1.262       .  A
C182        O183   1.256       .  A
C182        C768   1.467       .  S
O183       Cr197   1.983       .  S
O184       Cr197   2.034       .  S
O184        C185   1.271       .  A
C185        C323   1.473   1_554  S
O186       Cr195   2.020       .  S
O186        C194   1.266       .  A
O187       Cr195   1.984       .  S
O187        C188   1.259       .  A
C188        O189   1.266       .  A
C188        C352   1.470       .  S
O189       Cr196   2.011       .  S
O190       Cr196   1.956       .  S
O190        C191   1.259       .  A
C191        O192   1.275       .  A
C191        C336   1.469       .  S
O192       Cr197   2.042       .  S
O193       Cr197   1.970       .  S
O193        C194   1.257       .  A
C194        C499   1.475       .  S
Cr195       O198   1.766       .  S
Cr196       O198   1.766       .  S
Cr197       O198   1.769       .  S
O199       Cr217   1.940       .  S
O199        C207   1.255       .  A
O200       Cr217   2.023       .  S
O200        C201   1.271       .  A
C201        O202   1.263       .  A
C201        C304   1.468       .  S
O202       Cr218   1.982       .  S
O203       Cr218   2.002       .  S
O203        C204   1.259       .  A
C204        O205   1.254       .  A
C204        C464   1.462       .  S
O205       Cr219   1.977       .  S
O206       Cr219   2.037       .  S
O206        C207   1.271       .  A
C207        C320   1.469       .  S
O208       Cr217   2.019       .  S
O208        C216   1.265       .  A
O209       Cr217   1.975       .  S
O209        C210   1.258       .  A
C210        O211   1.263       .  A
C210        C435   1.456       .  S
O211       Cr218   2.000       .  S
O212       Cr218   1.952       .  S
O212        C213   1.259       .  A
C213        O214   1.277       .  A
C213        C339   1.468       .  S
O214       Cr219   2.050       .  S
O215       Cr219   1.960       .  S
O215        C216   1.256       .  A
C216        C704   1.469       .  S
Cr217       O220   1.764       .  S
Cr218       O220   1.763       .  S
Cr219       O220   1.768       .  S
O221       Cr239   1.970       .  S
O221        C229   1.262       .  A
O222       Cr239   2.009       .  S
O222        C223   1.263       .  A
C223        O224   1.260       .  A
C223        C451   1.474       .  S
O224       Cr240   1.987       .  S
O225       Cr240   2.030       .  S
O225        C226   1.270       .  A
C226        O227   1.259       .  A
C226        C752   1.481       .  S
O227       Cr241   1.970       .  S
O228       Cr241   2.049       .  S
O228        C229   1.276       .  A
C229        C272   1.476       .  S
O230       Cr239   2.008       .  S
O230        C238   1.262       .  A
O231       Cr239   1.985       .  S
O231        C232   1.263       .  A
C232        O233   1.272       .  A
C232        C355   1.474       .  S
O233       Cr240   2.023       .  S
O234       Cr240   1.960       .  S
O234        C235   1.256       .  A
C235        O236   1.271       .  A
C235        C288   1.480       .  S
O236       Cr241   2.043       .  S
O237       Cr241   1.986       .  S
O237        C238   1.259       .  A
C238        C624   1.471       .  S
Cr239       O242   1.770       .  S
Cr240       O242   1.767       .  S
Cr241       O242   1.777       .  S
O243       Cr261   1.962       .  S
O243        C251   1.262       .  A
O244       Cr261   2.011       .  S
O244        C245   1.262       .  A
C245        O246   1.256       .  A
C245        C307   1.474       .  S
O246       Cr262   1.981       .  S
O247       Cr262   1.996       .  S
O247        C248   1.262       .  A
C248        O249   1.261       .  A
C248        C579   1.472       .  S
O249       Cr263   1.983       .  S
O250       Cr263   2.046       .  S
O250        C251   1.277       .  A
C251        C275   1.472       .  S
O252       Cr261   2.002       .  S
O252        C260   1.260       .  A
O253       Cr261   1.975       .  S
O253        C254   1.262       .  A
C254        O255   1.268       .  A
C254        C384   1.465       .  S
O255       Cr262   2.006       .  S
O256       Cr262   1.965       .  S
O256        C257   1.259       .  A
C257        O258   1.271       .  A
C257        C291   1.485       .  S
O258       Cr263   2.033       .  S
O259       Cr263   1.994       .  S
O259        C260   1.258       .  A
C260        C691   1.480       .  S
Cr261       O264   1.780       .  S
Cr262       O264   1.776       .  S
Cr263       O264   1.782       .  S
C265        S271   1.716       .  A
C265        C270   1.386       .  A
C265        C266   1.410       .  A
C266        C267   1.409       .  A
C266        H277   1.082       .  S
C267        C276   1.382       .  A
C267        C268   1.387       .  A
C268        S274   1.703       .  A
C268        C269   1.401       .  A
C269        C270   1.401       .  A
C269        H278   1.083       .  S
C270        C273   1.373       .  A
S271        C272   1.726       .  A
C272        C273   1.386       .  A
C273        H279   1.083       .  S
S274        C275   1.721       .  A
C275        C276   1.390       .  A
C276        H280   1.083       .  S
C281        S287   1.700       .  A
C281        C286   1.387       .  A
C281        C282   1.399       .  A
C282        C283   1.399       .  A
C282        H293   1.083       .  S
C283        C292   1.369   1_554  A
C283        C284   1.385       .  A
C284        S290   1.722   1_554  A
C284        C285   1.413       .  A
C285        C286   1.413       .  A
C285        H294   1.082       .  S
C286        C289   1.385       .  A
S287        C288   1.723       .  A
C288        C289   1.394       .  A
C289        H295   1.083       .  S
S290        C291   1.729       .  A
C291        C292   1.388       .  A
C292        H296   1.083       .  S
C297        S303   1.713       .  A
C297        C302   1.387       .  A
C297        C298   1.404       .  A
C298        C299   1.406       .  A
C298        H309   1.083       .  S
C299        C308   1.374       .  A
C299        C300   1.387       .  A
C300        S306   1.705       .  A
C300        C301   1.400       .  A
C301        C302   1.400       .  A
C301        H310   1.083       .  S
C302        C305   1.367       .  A
S303        C304   1.723       .  A
C304        C305   1.384       .  A
C305        H311   1.083       .  S
S306        C307   1.723       .  A
C307        C308   1.389       .  A
C308        H312   1.083       .  S
C313        S319   1.690       .  A
C313        C318   1.388       .  A
C313        C314   1.391       .  A
C314        C315   1.392       .  A
C314        H325   1.083       .  S
C315        C324   1.358       .  A
C315        C316   1.385       .  A
C316        S322   1.721       .  A
C316        C317   1.411       .  A
C317        C318   1.411       .  A
C317        H326   1.082       .  S
C318        C321   1.381       .  A
S319        C320   1.720       .  A
C320        C321   1.391       .  A
C321        H327   1.083       .  S
S322        C323   1.728       .  A
C323        C324   1.382       .  A
C324        H328   1.084       .  S
C329        S335   1.720       .  A
C329        C334   1.386       .  A
C329        C330   1.410       .  A
C330        C331   1.411       .  A
C330        H341   1.082       .  S
C331        C340   1.379       .  A
C331        C332   1.387       .  A
C332        S338   1.702       .  A
C332        C333   1.397       .  A
C333        C334   1.398       .  A
C333        H342   1.083       .  S
C334        C337   1.366       .  A
S335        C336   1.725       .  A
C336        C337   1.382       .  A
C337        H343   1.084       .  S
S338        C339   1.719       .  A
C339        C340   1.391       .  A
C340        H344   1.083       .  S
C345        S351   1.701       .  A
C345        C350   1.387       .  A
C345        C346   1.397       .  A
C346        C347   1.398       .  A
C346        H357   1.083       .  S
C347        C356   1.367       .  A
C347        C348   1.386       .  A
C348        S354   1.716       .  A
C348        C349   1.408       .  A
C349        C350   1.408       .  A
C349        H358   1.083       .  S
C350        C353   1.376       .  A
S351        C352   1.719       .  A
C352        C353   1.390       .  A
C353        H359   1.083       .  S
S354        C355   1.726       .  A
C355        C356   1.384       .  A
C356        H360   1.083       .  S
C361        S367   1.704       .  A
C361        C366   1.387       .  A
C361        C362   1.400       .  A
C362        C363   1.401       .  A
C362        H373   1.083       .  S
C363        C372   1.369       .  A
C363        C364   1.387       .  A
C364        S370   1.710       .  A
C364        C365   1.404       .  A
C365        C366   1.404       .  A
C365        H374   1.083       .  S
C366        C369   1.373       .  A
S367        C368   1.722       .  A
C368        C369   1.386       .  A
C369        H375   1.083       .  S
S370        C371   1.725       .  A
C371        C372   1.385       .  A
C372        H376   1.083       .  S
C377        S383   1.697       .  A
C377        C382   1.388       .  A
C377        C378   1.394       .  A
C378        C379   1.395       .  A
C378        H389   1.083       .  S
C379        C388   1.361       .  A
C379        C380   1.387       .  A
C380        S386   1.711       .  A
C380        C381   1.403       .  A
C381        C382   1.405       .  A
C381        H390   1.083       .  S
C382        C385   1.371       .  A
S383        C384   1.719       .  A
C384        C385   1.387       .  A
C385        H391   1.083       .  S
S386        C387   1.722       .  A
C387        C388   1.379       .  A
C388        H392   1.084       .  S
C393        S399   1.702       .  A
C393        C398   1.387       .  A
C393        C394   1.398       .  A
C394        C395   1.399       .  A
C394        H405   1.083       .  S
C395        C404   1.366       .  A
C395        C396   1.386       .  A
C396        S402   1.721       .  A
C396        C397   1.410       .  A
C397        C398   1.412       .  A
C397        H406   1.082       .  S
C398        C401   1.382       .  A
S399        C400   1.722       .  A
C400        C401   1.392       .  A
C401        H407   1.083       .  S
S402        C403   1.726       .  A
C403        C404   1.384       .  A
C404        H408   1.083       .  S
C409        S415   1.712       .  A
C409        C414   1.387       .  A
C409        C410   1.402       .  A
C410        C411   1.404       .  A
C410        H421   1.083       .  S
C411        C420   1.371       .  A
C411        C412   1.387       .  A
C412        S418   1.712       .  A
C412        C413   1.404       .  A
C413        C414   1.405       .  A
C413        H422   1.083       .  S
C414        C417   1.372       .  A
S415        C416   1.719       .  A
C416        C417   1.387       .  A
C417        H423   1.083       .  S
S418        C419   1.722       .  A
C419        C420   1.385       .  A
C420        H424   1.083       .  S
C425        S431   1.709       .  A
C425        C430   1.388       .  A
C425        C426   1.401       .  A
C426        C427   1.403       .  A
C426        H437   1.083       .  S
C427        C436   1.369       .  A
C427        C428   1.389       .  A
C428        S434   1.695       .  A
C428        C429   1.392       .  A
C429        C430   1.394       .  A
C429        H438   1.083       .  S
C430        C433   1.358       .  A
S431        C432   1.721       .  A
C432        C433   1.379       .  A
C433        H439   1.084       .  S
S434        C435   1.718       .  A
C435        C436   1.384       .  A
C436        H440   1.083       .  S
C441        S447   1.711       .  A
C441        C446   1.387       .  A
C441        C442   1.403       .  A
C442        C443   1.404       .  A
C442        H453   1.082       .  S
C443        C452   1.375       .  A
C443        C444   1.387       .  A
C444        S450   1.706       .  A
C444        C445   1.403       .  A
C445        C446   1.404       .  A
C445        H454   1.083       .  S
C446        C449   1.372       .  A
S447        C448   1.720       .  A
C448        C449   1.388       .  A
C449        H455   1.083       .  S
S450        C451   1.726       .  A
C451        C452   1.386       .  A
C452        H456   1.083       .  S
C457        S463   1.708       .  A
C457        C462   1.387       .  A
C457        C458   1.399       .  A
C458        C459   1.401       .  A
C458        H469   1.083       .  S
C459        C468   1.365       .  A
C459        C460   1.387       .  A
C460        S466   1.711       .  A
C460        C461   1.400       .  A
C461        C462   1.403       .  A
C461        H470   1.083       .  S
C462        C465   1.366       .  A
S463        C464   1.719       .  A
C464        C465   1.384       .  A
C465        H471   1.083       .  S
S466        C467   1.721       .  A
C467        C468   1.385       .  A
C468        H472   1.083       .  S
C473        S479   1.712       .  A
C473        C478   1.388       .  A
C473        C474   1.405   1_545  A
C474        C475   1.406       .  A
C474        H485   1.083       .  S
C475        C484   1.374       .  A
C475        C476   1.387       .  A
C476        S482   1.707       .  A
C476        C477   1.400   1_565  A
C477        C478   1.401       .  A
C477        H486   1.083       .  S
C478        C481   1.370       .  A
S479        C480   1.723       .  A
C480        C481   1.383       .  A
C481        H487   1.083       .  S
S482        C483   1.721       .  A
C483        C484   1.389       .  A
C484        H488   1.083       .  S
C489        S495   1.712       .  A
C489        C494   1.388       .  A
C489        C490   1.405       .  A
C490        C491   1.406       .  A
C490        H501   1.083       .  S
C491        C500   1.376       .  A
C491        C492   1.387       .  A
C492        S498   1.704       .  A
C492        C493   1.401       .  A
C493        C494   1.401       .  A
C493        H502   1.083       .  S
C494        C497   1.371       .  A
S495        C496   1.721       .  A
C496        C497   1.383       .  A
C497        H503   1.083       .  S
S498        C499   1.723       .  A
C499        C500   1.389       .  A
C500        H504   1.083       .  S
C505        S511   1.710       .  A
C505        C510   1.388   1_556  A
C505        C506   1.400   1_545  A
C506        C507   1.402       .  A
C506        H517   1.083       .  S
C507        C516   1.366       .  A
C507        C508   1.387   1_556  A
C508        S514   1.705       .  A
C508        C509   1.397   1_565  A
C509        C510   1.399       .  A
C509        H518   1.083       .  S
C510        C513   1.363       .  A
S511        C512   1.719       .  A
C512        C513   1.382   1_556  A
C513        H519   1.083       .  S
S514        C515   1.720       .  A
C515        C516   1.385   1_554  A
C516        H520   1.083       .  S
C521        S527   1.719       .  A
C521        C526   1.387       .  A
C521        C522   1.410       .  A
C522        C523   1.411       .  A
C522        H533   1.083       .  S
C523        C532   1.380       .  A
C523        C524   1.387       .  A
C524        S530   1.705       .  A
C524        C525   1.399       .  A
C525        C526   1.401       .  A
C525        H534   1.083       .  S
C526        C529   1.369       .  A
S527        C528   1.725       .  A
C528        C529   1.384       .  A
C529        H535   1.083       .  S
S530        C531   1.719       .  A
C531        C532   1.392       .  A
C532        H536   1.083       .  S
C537        S543   1.693       .  A
C537        C542   1.387       .  A
C537        C538   1.394       .  A
C538        C539   1.394       .  A
C538        H549   1.083       .  S
C539        C548   1.363       .  A
C539        C540   1.385       .  A
C540        S546   1.722       .  A
C540        C541   1.414       .  A
C541        C542   1.414       .  A
C541        H550   1.082       .  S
C542        C545   1.386       .  A
S543        C544   1.720       .  A
C544        C545   1.396       .  A
C545        H551   1.083       .  S
S546        C547   1.729       .  A
C547        C548   1.382       .  A
C548        H552   1.083       .  S
C553        S559   1.706       .  A
C553        C558   1.387       .  A
C553        C554   1.404   1_455  A
C554        C555   1.403       .  A
C554        H565   1.083   1_556  S
C555        C564   1.375       .  A
C555        C556   1.387       .  A
C556        S562   1.706       .  A
C556        C557   1.404       .  A
C557        C558   1.403   1_655  A
C557        H566   1.083       .  S
C558        C561   1.376       .  A
S559        C560   1.725       .  A
C560        C561   1.386       .  A
C561        H567   1.083       .  S
S562        C563   1.723       .  A
C563        C564   1.386       .  A
C564        H568   1.083       .  S
C569        S575   1.705       .  A
C569        C574   1.387       .  A
C569        C570   1.402       .  A
C570        C571   1.402       .  A
C570        H581   1.083       .  S
C571        C580   1.372       .  A
C571        C572   1.387       .  A
C572        S578   1.713       .  A
C572        C573   1.408       .  A
C573        C574   1.408       .  A
C573        H582   1.083       .  S
C574        C577   1.380       .  A
S575        C576   1.725       .  A
C576        C577   1.391       .  A
C577        H583   1.083       .  S
S578        C579   1.725       .  A
C579        C580   1.385       .  A
C580        H584   1.083       .  S
C585        S591   1.702       .  A
C585        C590   1.387       .  A
C585        C586   1.399       .  A
C586        C587   1.399       .  A
C586        H597   1.083       .  S
C587        C596   1.367       .  A
C587        C588   1.387       .  A
C588        S594   1.713       .  A
C588        C589   1.405       .  A
C589        C590   1.406       .  A
C589        H598   1.083       .  S
C590        C593   1.376       .  A
S591        C592   1.723       .  A
C592        C593   1.389       .  A
C593        H599   1.083       .  S
S594        C595   1.722       .  A
C595        C596   1.382       .  A
C596        H600   1.084       .  S
C601        S607   1.711       .  A
C601        C606   1.387       .  A
C601        C602   1.407   1_455  A
C602        C603   1.406       .  A
C602        H613   1.083       .  S
C603        C612   1.377       .  A
C603        C604   1.387       .  A
C604        S610   1.706       .  A
C604        C605   1.402       .  A
C605        C606   1.402   1_655  A
C605        H614   1.083       .  S
C606        C609   1.374       .  A
S607        C608   1.726       .  A
C608        C609   1.385       .  A
C609        H615   1.083       .  S
S610        C611   1.722       .  A
C611        C612   1.389       .  A
C612        H616   1.083       .  S
C617        S623   1.706       .  A
C617        C622   1.387       .  A
C617        C618   1.404       .  A
C618        C619   1.403       .  A
C618        H629   1.083       .  S
C619        C628   1.375       .  A
C619        C620   1.388       .  A
C620        S626   1.703       .  A
C620        C621   1.401       .  A
C621        C622   1.401       .  A
C621        H630   1.083       .  S
C622        C625   1.373       .  A
S623        C624   1.724       .  A
C624        C625   1.385       .  A
C625        H631   1.083       .  S
S626        C627   1.722       .  A
C627        C628   1.386       .  A
C628        H632   1.083       .  S
C633        S639   1.692       .  A
C633        C638   1.387       .  A
C633        C634   1.390       .  A
C634        C635   1.392       .  A
C634        H645   1.084       .  S
C635        C644   1.356       .  A
C635        C636   1.384       .  A
C636        S642   1.728       .  A
C636        C637   1.415       .  A
C637        C638   1.417       .  A
C637        H646   1.082       .  S
C638        C641   1.385       .  A
S639        C640   1.720       .  A
C640        C641   1.396       .  A
C641        H647   1.082       .  S
S642        C643   1.732       .  A
C643        C644   1.385       .  A
C644        H648   1.084       .  S
C649        S655   1.715       .  A
C649        C654   1.387       .  A
C649        C650   1.405       .  A
C650        C651   1.406       .  A
C650        H661   1.083       .  S
C651        C660   1.374       .  A
C651        C652   1.387       .  A
C652        S658   1.708       .  A
C652        C653   1.402       .  A
C653        C654   1.403       .  A
C653        H662   1.083       .  S
C654        C657   1.370       .  A
S655        C656   1.721       .  A
C656        C657   1.385       .  A
C657        H663   1.083       .  S
S658        C659   1.722       .  A
C659        C660   1.387       .  A
C660        H664   1.083       .  S
C665        S671   1.718       .  A
C665        C670   1.386       .  A
C665        C666   1.410       .  A
C666        C667   1.410       .  A
C666        H677   1.082       .  S
C667        C676   1.380       .  A
C667        C668   1.387       .  A
C668        S674   1.702       .  A
C668        C669   1.398       .  A
C669        C670   1.398       .  A
C669        H678   1.083       .  S
C670        C673   1.367       .  A
S671        C672   1.728       .  A
C672        C673   1.384       .  A
C673        H679   1.083       .  S
S674        C675   1.721       .  A
C675        C676   1.392       .  A
C676        H680   1.083       .  S
C681        S687   1.716       .  A
C681        C686   1.387       .  A
C681        C682   1.404   1_565  A
C682        C683   1.406       .  A
C682        H693   1.083       .  S
C683        C692   1.372       .  A
C683        C684   1.386       .  A
C684        S690   1.715       .  A
C684        C685   1.404   1_545  A
C685        C686   1.406       .  A
C685        H694   1.083       .  S
C686        C689   1.371       .  A
S687        C688   1.721       .  A
C688        C689   1.388       .  A
C689        H695   1.083       .  S
S690        C691   1.725       .  A
C691        C692   1.390       .  A
C692        H696   1.083       .  S
C697        S703   1.696       .  A
C697        C702   1.388       .  A
C697        C698   1.396       .  A
C698        C699   1.395   1_655  A
C698        H709   1.083   1_655  S
C699        C708   1.366       .  A
C699        C700   1.387       .  A
C700        S706   1.713       .  A
C700        C701   1.408   1_455  A
C701        C702   1.408       .  A
C701        H710   1.083       .  S
C702        C705   1.379       .  A
S703        C704   1.719       .  A
C704        C705   1.390       .  A
C705        H711   1.083       .  S
S706        C707   1.726       .  A
C707        C708   1.381       .  A
C708        H712   1.083       .  S
C713        S719   1.715       .  A
C713        C718   1.387       .  A
C713        C714   1.410       .  A
C714        C715   1.409       .  A
C714        H725   1.082       .  S
C715        C724   1.381       .  A
C715        C716   1.387       .  A
C716        S722   1.699       .  A
C716        C717   1.398       .  A
C717        C718   1.398       .  A
C717        H726   1.083       .  S
C718        C721   1.369       .  A
S719        C720   1.727       .  A
C720        C721   1.382       .  A
C721        H727   1.083       .  S
S722        C723   1.722       .  A
C723        C724   1.392       .  A
C724        H728   1.083       .  S
C729        S735   1.709       .  A
C729        C734   1.387       .  A
C729        C730   1.404       .  A
C730        C731   1.404       .  A
C730        H741   1.083       .  S
C731        C740   1.375       .  A
C731        C732   1.387       .  A
C732        S738   1.701       .  A
C732        C733   1.400       .  A
C733        C734   1.400       .  A
C733        H742   1.083       .  S
C734        C737   1.369       .  A
S735        C736   1.723       .  A
C736        C737   1.385       .  A
C737        H743   1.083       .  S
S738        C739   1.723       .  A
C739        C740   1.387       .  A
C740        H744   1.083       .  S
C745        S751   1.708       .  A
C745        C750   1.387       .  A
C745        C746   1.405       .  A
C746        C747   1.405   1_545  A
C746        H757   1.083       .  S
C747        C756   1.377       .  A
C747        C748   1.386       .  A
C748        S754   1.713       .  A
C748        C749   1.408   1_565  A
C749        C750   1.407       .  A
C749        H758   1.082       .  S
C750        C753   1.381       .  A
S751        C752   1.726       .  A
C752        C753   1.389       .  A
C753        H759   1.083       .  S
S754        C755   1.726       .  A
C755        C756   1.390       .  A
C756        H760   1.083       .  S
C761        S767   1.712       .  A
C761        C766   1.387       .  A
C761        C762   1.403   1_655  A
C762        C763   1.405       .  A
C762        H773   1.083       .  S
C763        C772   1.371       .  A
C763        C764   1.387       .  A
C764        S770   1.707       .  A
C764        C765   1.399   1_455  A
C765        C766   1.401       .  A
C765        H774   1.083       .  S
C766        C769   1.367       .  A
S767        C768   1.722       .  A
C768        C769   1.384       .  A
C769        H775   1.083       .  S
S770        C771   1.720       .  A
C771        C772   1.388       .  A
C772        H776   1.083       .  S
C777        S783   1.706   1_556  A
C777        C782   1.387       .  A
C777        C778   1.400       .  A
C778        C779   1.401       .  A
C778        H789   1.083       .  S
C779        C788   1.369       .  A
C779        C780   1.387       .  A
C780        S786   1.717       .  A
C780        C781   1.408       .  A
C781        C782   1.409       .  A
C781        H790   1.083       .  S
C782        C785   1.377   1_556  A
S783        C784   1.719       .  A
C784        C785   1.390       .  A
C785        H791   1.083       .  S
S786        C787   1.724       .  A
C787        C788   1.384       .  A
C788        H792   1.083       .  S
C793        S799   1.726       .  A
C793        C798   1.384       .  A
C793        C794   1.416       .  A
C794        C795   1.417       .  A
C794        H805   1.082       .  S
C795        C804   1.387       .  A
C795        C796   1.387       .  A
C796        S802   1.698       .  A
C796        C797   1.395       .  A
C797        C798   1.396       .  A
C797        H806   1.083       .  S
C798        C801   1.365       .  A
S799        C800   1.732       .  A
C800        C801   1.386       .  A
C801        H807   1.083       .  S
S802        C803   1.721       .  A
C803        C804   1.397       .  A
C804        H808   1.082       .  S
C809        S815   1.717       .  A
C809        C814   1.386       .  A
C809        C810   1.408       .  A
C810        C811   1.409       .  A
C810        H821   1.083       .  S
C811        C820   1.377       .  A
C811        C812   1.387       .  A
C812        S818   1.700       .  A
C812        C813   1.396       .  A
C813        C814   1.398       .  A
C813        H822   1.083       .  S
C814        C817   1.365       .  A
S815        C816   1.726       .  A
C816        C817   1.383       .  A
C817        H823   1.083       .  S
S818        C819   1.720       .  A
C819        C820   1.390       .  A
C820        H824   1.083       .  S
C825        S831   1.704       .  A
C825        C830   1.387       .  A
C825        C826   1.401       .  A
C826        C827   1.402       .  A
C826        H837   1.083       .  S
C827        C836   1.371       .  A
C827        C828   1.387       .  A
C828        S834   1.712       .  A
C828        C829   1.406       .  A
C829        C830   1.406       .  A
C829        H838   1.083       .  S
C830        C833   1.377       .  A
S831        C832   1.725       .  A
C832        C833   1.388       .  A
C833        H839   1.083       .  S
S834        C835   1.725       .  A
C835        C836   1.386       .  A
C836        H840   1.083       .  S
