geometry optimzed in LAMMPS
_audit_creation_date              2020-12-01 
_audit_creation_method            'lammps2cif' 
_symmetry_space_group_name_H-M    'P1' 
_symmetry_Int_Tables_number       1 
_symmetry_cell_setting            triclinic 
loop_ 
_symmetry_equiv_pos_as_xyz 
  x,y,z 
_cell_length_a                    52.72060242 
_cell_length_b                    53.754433641084546 
_cell_length_c                    36.328730365778235 
_cell_angle_alpha                 90.39408578801078 
_cell_angle_beta                  89.58566139707757 
_cell_angle_gamma                 119.0983181016871 
loop_ 
_atom_site_label 
_atom_site_type_symbol 
_atom_site_fract_x 
_atom_site_fract_y 
_atom_site_fract_z 
_atom_site_charge 
C1          C  0.16789417  0.33568512  0.13128768     0.47400
H2          H  0.16815297  0.33542996  0.10068384    -0.01600
C3          C  0.16743193  0.33603765  0.20286710     0.47500
H4          H  0.16727836  0.33626582  0.23347025    -0.01600
C5          C  0.18500468  0.32251151  0.14860972    -0.15300
C6          C  0.18082409  0.36560896  0.14801128    -0.15000
C7          C  0.13737461  0.31913314  0.14797969    -0.15400
C8          C  0.18497426  0.32283482  0.18624871    -0.15400
C9          C  0.18034896  0.36571982  0.18568936    -0.14900
C10         C  0.13716123  0.31911980  0.18573236    -0.15300
C11         C  0.33228598  0.16517301  0.20252974     0.47400
H12         H  0.33198144  0.16554954  0.23312833    -0.01600
C13         C  0.33316178  0.16447063  0.13095737     0.47500
H14         H  0.33362059  0.16405678  0.10036491    -0.01600
C15         C  0.31718747  0.13510022  0.18599681    -0.15300
C16         C  0.31726303  0.18034589  0.18463571    -0.15000
C17         C  0.36292933  0.17958399  0.18606506    -0.15400
C18         C  0.31743103  0.13481029  0.14831018    -0.15400
C19         C  0.31788080  0.18019725  0.14687271    -0.14900
C20         C  0.36334672  0.17902260  0.14847057    -0.15300
O21         O  0.47159256  0.21292158  0.29601044    -0.72400
O22         O  0.03046963  0.24210489  0.03722878    -0.72500
O23         O  0.47167885  0.21246910  0.03699878    -0.72500
O24         O  0.03045711  0.24230116  0.29628271    -0.72600
O25         O  0.02852576  0.28282998  0.29621310    -0.72500
O26         O  0.47041433  0.25327575  0.03836842    -0.72500
O27         O  0.02914148  0.28290871  0.03704053    -0.72500
O28         O  0.46987033  0.25348164  0.29748168    -0.72500
Ni29       Ni  0.50108277  0.22597327  0.33325623     1.25400
Ni30       Ni  0.49943220  0.26956198  0.33399079     1.25400
C31         C  0.46073242  0.22830428  0.28478885     0.89700
C32         C  0.03988717  0.26765650  0.04888221     0.89700
C33         C  0.46115504  0.22778698  0.04977676     0.89700
C34         C  0.03939628  0.26754775  0.28428564     0.89900
O35         O  0.21700856  0.24807436  0.29635621    -0.72400
O36         O  0.24486238  0.21662085  0.03660925    -0.72500
O37         O  0.21712641  0.24765328  0.03722976    -0.72500
O38         O  0.24456650  0.21685797  0.29579006    -0.72600
O39         O  0.28701356  0.25702282  0.29481275    -0.72500
O40         O  0.25973918  0.28750343  0.03807892    -0.72500
O41         O  0.28767293  0.25636740  0.03569917    -0.72500
O42         O  0.25936063  0.28828944  0.29712341    -0.72500
Ni43       Ni  0.22937839  0.23090318  0.33316482     1.25400
Ni44       Ni  0.27498828  0.27374126  0.33311796     1.25400
C45         C  0.23348601  0.27349914  0.28490155     0.89700
C46         C  0.27110399  0.23118209  0.04777329     0.89700
C47         C  0.23362054  0.27267765  0.04982967     0.89700
C48         C  0.27035091  0.23165453  0.28319784     0.89900
O49         O  0.25308714  0.47125364  0.29605115    -0.72400
O50         O  0.28271347  0.02867803  0.03751521    -0.72500
O51         O  0.25332564  0.47113341  0.03681589    -0.72500
O52         O  0.28266620  0.02888520  0.29670883    -0.72600
O53         O  0.24072971  0.02950718  0.29655731    -0.72500
O54         O  0.21152844  0.47202636  0.03827811    -0.72500
O55         O  0.24101120  0.02979448  0.03757937    -0.72500
O56         O  0.21105972  0.47167591  0.29720323    -0.72500
Ni57       Ni  0.26941006  0.99995461  0.00007083     1.25400
Ni58       Ni  0.22456492  0.00078148  0.00076090     1.25400
C59         C  0.22703159  0.46165889  0.28464854     0.89700
C60         C  0.26686121  0.03900997  0.04949836     0.89700
C61         C  0.22755758  0.46175376  0.04942651     0.89700
C62         C  0.26681586  0.03906130  0.28478845     0.89900
C63         C  0.30140219  0.06619165  0.10042545     0.25600
C64         C  0.27877570  0.06243799  0.07666579    -0.22500
C65         C  0.26835196  0.08208356  0.07801055     0.20500
C66         C  0.28070371  0.10527070  0.10198407     0.25500
C67         C  0.30331435  0.10902352  0.12535545    -0.22500
C68         C  0.31348098  0.08930056  0.12476651     0.20400
F69         F  0.33577824  0.09301449  0.14676286    -0.12400
F70         F  0.31190049  0.04759694  0.10004764    -0.14800
F71         F  0.27069282  0.12425350  0.10222553    -0.14800
F72         F  0.24700638  0.07958922  0.05506872    -0.12400
C73         C  0.26158735  0.06804203  0.23410594     0.25600
C74         C  0.27938296  0.06275818  0.25798164    -0.22500
C75         C  0.30964801  0.08103861  0.25690968     0.20500
C76         C  0.32171917  0.10427190  0.23312969     0.25500
C77         C  0.30399561  0.10947934  0.20945920    -0.22500
C78         C  0.27387289  0.09114814  0.20982852     0.20400
F79         F  0.25630194  0.09619442  0.18758230    -0.12400
F80         F  0.23236036  0.05086975  0.23416179    -0.14800
F81         F  0.35086870  0.12178627  0.23325647    -0.14800
F82         F  0.32762374  0.07710667  0.27982209    -0.12400
C83         C  0.43101421  0.19264874  0.23599574     0.25600
C84         C  0.43681733  0.21674749  0.25755995    -0.22500
C85         C  0.41879703  0.22921845  0.25371376     0.20500
C86         C  0.39498963  0.21719338  0.23009210     0.25500
C87         C  0.38907720  0.19296766  0.20929736    -0.22500
C88         C  0.40744242  0.18102443  0.21184809     0.20400
F89         F  0.40202602  0.15759045  0.19172907    -0.12400
F90         F  0.44806482  0.18025517  0.23823155    -0.14800
F91         F  0.37766795  0.22926962  0.22744346    -0.14800
F92         F  0.42357702  0.25258692  0.27357015    -0.12400
C93         C  0.40729371  0.22130424  0.12385163     0.25600
C94         C  0.38988482  0.19167224  0.12592625    -0.22500
C95         C  0.39660319  0.17396552  0.10444035     0.20500
C96         C  0.42033058  0.18569034  0.08053055     0.25500
C97         C  0.43746041  0.21549543  0.07729114    -0.22500
C98         C  0.43084799  0.23320173  0.09952738     0.20400
F99         F  0.44695736  0.26199176  0.09757946    -0.12400
F100        F  0.40073418  0.23869473  0.14425378    -0.14800
F101        F  0.42574246  0.16776865  0.05956454    -0.14800
F102        F  0.37994073  0.14523278  0.10640500    -0.12400
C103        C  0.26488063  0.19884930  0.10077248     0.25600
C104        C  0.28284484  0.21858712  0.07413487    -0.22500
C105        C  0.31225128  0.22568292  0.07202843     0.20500
C106        C  0.32344705  0.21326677  0.09591213     0.25500
C107        C  0.30564599  0.19378992  0.12270465    -0.22500
C108        C  0.27622383  0.18657367  0.12492650     0.20400
F109        F  0.25824760  0.16692831  0.14957409    -0.12400
F110        F  0.23641734  0.19158747  0.10361081    -0.14800
F111        F  0.35183951  0.22039253  0.09284809    -0.14800
F112        F  0.33003055  0.24393490  0.04594439    -0.12400
C113        C  0.28210829  0.17673494  0.23256018     0.25600
C114        C  0.30384234  0.19358020  0.20732382    -0.22500
C115        C  0.31389198  0.22298679  0.20585712     0.20500
C116        C  0.30269303  0.23552665  0.23014562     0.25500
C117        C  0.28116201  0.21867878  0.25590547    -0.22500
C118        C  0.27068727  0.18909271  0.25650168     0.20400
F119        F  0.25027057  0.17220081  0.28135753    -0.12400
F120        F  0.27205847  0.14823363  0.23420589    -0.14800
F121        F  0.31293039  0.26406322  0.22854426    -0.14800
F122        F  0.33531202  0.23965816  0.18197753    -0.12400
C123        C  0.09247188  0.27596924  0.12517919     0.25600
C124        C  0.11137545  0.30549563  0.12433278    -0.22500
C125        C  0.10647263  0.32230116  0.09914231     0.20500
C126        C  0.08301646  0.30995567  0.07512791     0.25500
C127        C  0.06409615  0.28035501  0.07546049    -0.22500
C128        C  0.06907014  0.26341985  0.10070897     0.20400
F129        F  0.05124280  0.23482218  0.10188452    -0.12400
F130        F  0.09719457  0.25921799  0.14883674    -0.14800
F131        F  0.07945089  0.32698522  0.05066234    -0.14800
F132        F  0.12443330  0.35087016  0.09788413    -0.12400
C133        C  0.10896843  0.28446349  0.23470713     0.25600
C134        C  0.11094261  0.30460656  0.20889032    -0.23900
C135        C  0.08881234  0.31193039  0.20698664     0.20500
C136        C  0.06512121  0.29948447  0.23107743     0.25500
C137        C  0.06326089  0.27947133  0.25722968    -0.22500
C138        C  0.08524135  0.27182387  0.25852175     0.20400
F139        F  0.08445616  0.25303539  0.28392681    -0.12400
F140        F  0.13016919  0.27714071  0.23705694    -0.14800
F141        F  0.04404806  0.30700932  0.22886671    -0.14800
F142        F  0.09071124  0.33193093  0.18283865    -0.12400
C143        C  0.24007551  0.30906479  0.09819117     0.25600
C144        C  0.22172617  0.28466985  0.07736506    -0.22500
C145        C  0.19140159  0.27228159  0.08198937     0.20500
C146        C  0.17977334  0.28455800  0.10569296     0.25500
C147        C  0.19802731  0.30897356  0.12583648    -0.22500
C148        C  0.22821927  0.32097420  0.12255490     0.20400
F149        F  0.24611974  0.34471894  0.14198534    -0.12400
F150        F  0.26938925  0.32151555  0.09487033    -0.14800
F151        F  0.15050532  0.27253863  0.10898860    -0.14800
F152        F  0.17274412  0.24877087  0.06270629    -0.12400
C153        C  0.18834505  0.28079863  0.20929799     0.25600
C154        C  0.19872633  0.31029494  0.20943409    -0.22500
C155        C  0.22121298  0.32773324  0.23336686     0.20500
C156        C  0.23314722  0.31588172  0.25712025     0.25500
C157        C  0.22230018  0.28619974  0.25783602    -0.22500
C158        C  0.19994096  0.26880247  0.23339376     0.20400
F159        F  0.18925063  0.24016722  0.23279775    -0.12400
F160        F  0.16614631  0.26347043  0.18690177    -0.14800
F161        F  0.25453957  0.33340251  0.28040130    -0.14800
F162        F  0.23150252  0.35628955  0.23391798    -0.12400
C163        C  0.19356318  0.43356883  0.10094073     0.25600
C164        C  0.21614699  0.43809791  0.07625166    -0.22500
C165        C  0.22739557  0.41908921  0.07649249     0.20500
C166        C  0.21605490  0.39591280  0.10030195     0.25500
C167        C  0.19352279  0.39133446  0.12470007    -0.22500
C168        C  0.18239423  0.41036289  0.12508374     0.20400
F169        F  0.16002007  0.40587627  0.14780130    -0.12400
F170        F  0.18232272  0.45155363  0.10178079    -0.14800
F171        F  0.22711389  0.37779798  0.09941089    -0.14800
F172        F  0.24875228  0.42225073  0.05272248    -0.12400
C173        C  0.23367697  0.43244159  0.23525128     0.25600
C174        C  0.21503103  0.43824176  0.25730861    -0.22500
C175        C  0.18475128  0.42060670  0.25404544     0.20500
C176        C  0.17352586  0.39723844  0.23019170     0.25500
C177        C  0.19223496  0.39153857  0.20863569    -0.22500
C178        C  0.22228818  0.40939536  0.21086447     0.20400
F179        F  0.24062508  0.40390952  0.19029613    -0.12400
F180        F  0.26294786  0.44892103  0.23735996    -0.14800
F181        F  0.14434059  0.38004910  0.22818396    -0.14800
F182        F  0.16595486  0.42524891  0.27487671    -0.12400
C183        C  0.16789418  0.33568513  0.46462098     0.47400
H184        H  0.16815300  0.33542998  0.43401715    -0.01600
C185        C  0.16743192  0.33603766  0.53620041     0.47500
H186        H  0.16727833  0.33626583  0.56680355    -0.01600
C187        C  0.18500468  0.32251153  0.48194304    -0.15300
C188        C  0.18082409  0.36560898  0.48134458    -0.15000
C189        C  0.13737461  0.31913315  0.48131297    -0.15400
C190        C  0.18497425  0.32283482  0.51958204    -0.15400
C191        C  0.18034895  0.36571983  0.51902266    -0.14900
C192        C  0.13716122  0.31911981  0.51906565    -0.15300
C193        C  0.33228602  0.16517303  0.53586307     0.47400
H194        H  0.33198149  0.16554954  0.56646166    -0.01600
C195        C  0.33316180  0.16447067  0.46429070     0.47500
H196        H  0.33362060  0.16405684  0.43369824    -0.01600
C197        C  0.31718753  0.13510023  0.51933012    -0.15300
C198        C  0.31726305  0.18034589  0.51796908    -0.15000
C199        C  0.36292937  0.17958404  0.51939836    -0.15400
C200        C  0.31743109  0.13481032  0.48164349    -0.15400
C201        C  0.31788079  0.18019726  0.48020609    -0.14900
C202        C  0.36334676  0.17902267  0.48180388    -0.15300
O203        O  0.47159255  0.21292159  0.62934378    -0.72400
O204        O  0.03046962  0.24210497  0.37056200    -0.72500
O205        O  0.47167888  0.21246911  0.37033209    -0.72500
O206        O  0.03045710  0.24230113  0.62961603    -0.72600
O207        O  0.02852585  0.28283000  0.62954650    -0.72500
O208        O  0.47041435  0.25327575  0.37170171    -0.72500
O209        O  0.02914152  0.28290880  0.37037372    -0.72500
O210        O  0.46987031  0.25348165  0.63081502    -0.72500
Ni211      Ni  0.50108274  0.22597328  0.66658957     1.25400
Ni212      Ni  0.49943218  0.26956199  0.66732411     1.25400
C213        C  0.46073241  0.22830429  0.61812219     0.89700
C214        C  0.03988720  0.26765658  0.38221541     0.89700
C215        C  0.46115506  0.22778699  0.38311005     0.89700
C216        C  0.03939632  0.26754773  0.61761900     0.89900
O217        O  0.21700863  0.24807442  0.62968953    -0.72400
O218        O  0.24486233  0.21662079  0.36994261    -0.72500
O219        O  0.21712635  0.24765324  0.37056311    -0.72500
O220        O  0.24456659  0.21685806  0.62912344    -0.72600
O221        O  0.28701364  0.25702292  0.62814613    -0.72500
O222        O  0.25973911  0.28750339  0.37141221    -0.72500
O223        O  0.28767286  0.25636736  0.36903256    -0.72500
O224        O  0.25936068  0.28828954  0.63045681    -0.72500
Ni225      Ni  0.22937845  0.23090326  0.66649818     1.25400
Ni226      Ni  0.27498834  0.27374135  0.66645136     1.25400
C227        C  0.23348607  0.27349922  0.61823491     0.89700
C228        C  0.27110394  0.23118205  0.38110667     0.89700
C229        C  0.23362048  0.27267762  0.38316299     0.89700
C230        C  0.27035101  0.23165463  0.61653122     0.89900
O231        O  0.25308710  0.47125365  0.62938447    -0.72400
O232        O  0.28271347  0.02867806  0.37084856    -0.72500
O233        O  0.25332554  0.47113340  0.37014917    -0.72500
O234        O  0.28266618  0.02888522  0.63004214    -0.72600
O235        O  0.24072970  0.02950721  0.62989064    -0.72500
O236        O  0.21152834  0.47202637  0.37161139    -0.72500
O237        O  0.24101118  0.02979446  0.37091277    -0.72500
O238        O  0.21105968  0.47167591  0.63053655    -0.72500
Ni239      Ni  0.26941006  0.99995463  0.33340417     1.25400
Ni240      Ni  0.22456490  0.00078146  0.33409429     1.25400
C241        C  0.22703155  0.46165889  0.61798187     0.89700
C242        C  0.26686120  0.03900997  0.38283174     0.89700
C243        C  0.22755747  0.46175376  0.38275977     0.89700
C244        C  0.26681584  0.03906132  0.61812177     0.89900
C245        C  0.30140215  0.06619162  0.43375886     0.25600
C246        C  0.27877569  0.06243800  0.40999915    -0.22500
C247        C  0.26835203  0.08208360  0.41134385     0.20500
C248        C  0.28070381  0.10527077  0.43531733     0.25500
C249        C  0.30331441  0.10902355  0.45868875    -0.22500
C250        C  0.31348097  0.08930053  0.45809990     0.20400
F251        F  0.33577814  0.09301438  0.48009637    -0.12400
F252        F  0.31190035  0.04759682  0.43338116    -0.14800
F253        F  0.27069296  0.12425359  0.43555875    -0.14800
F254        F  0.24700643  0.07958926  0.38840203    -0.12400
C255        C  0.26158736  0.06804207  0.56743926     0.25600
C256        C  0.27938295  0.06275821  0.59131496    -0.22500
C257        C  0.30964801  0.08103863  0.59024301     0.20500
C258        C  0.32171918  0.10427193  0.56646303     0.25500
C259        C  0.30399564  0.10947936  0.54279250    -0.22500
C260        C  0.27387291  0.09114818  0.54316183     0.20400
F261        F  0.25630197  0.09619446  0.52091561    -0.12400
F262        F  0.23236036  0.05086981  0.56749511    -0.14800
F263        F  0.35086870  0.12178629  0.56658984    -0.14800
F264        F  0.32762374  0.07710664  0.61315536    -0.12400
C265        C  0.43101413  0.19264868  0.56932922     0.25600
C266        C  0.43681734  0.21674751  0.59089327    -0.22500
C267        C  0.41879715  0.22921859  0.58704691     0.20500
C268        C  0.39498974  0.21719351  0.56342525     0.25500
C269        C  0.38907725  0.19296773  0.54263064    -0.22500
C270        C  0.40744239  0.18102442  0.54518150     0.20400
F271        F  0.40202590  0.15759035  0.52506265    -0.12400
F272        F  0.44806459  0.18025496  0.57156526    -0.14800
F273        F  0.37766815  0.22926983  0.56077648    -0.14800
F274        F  0.42357722  0.25258714  0.60690315    -0.12400
C275        C  0.40729380  0.22130429  0.45718496     0.25600
C276        C  0.38988484  0.19167229  0.45925954    -0.22500
C277        C  0.39660316  0.17396554  0.43777358     0.20500
C278        C  0.42033054  0.18569035  0.41386376     0.25500
C279        C  0.43746042  0.21549544  0.41062441    -0.22500
C280        C  0.43084808  0.23320176  0.43286071     0.20400
F281        F  0.44695751  0.26199179  0.43091283    -0.12400
F282        F  0.40073436  0.23869482  0.47758717    -0.14800
F283        F  0.42574236  0.16776866  0.39289768    -0.14800
F284        F  0.37994064  0.14523281  0.43973821    -0.12400
C285        C  0.26488056  0.19884913  0.43410572     0.25600
C286        C  0.28284480  0.21858709  0.40746827    -0.22500
C287        C  0.31225128  0.22568301  0.40536196     0.20500
C288        C  0.32344706  0.21326687  0.42924567     0.25500
C289        C  0.30564597  0.19378992  0.45603806    -0.22500
C290        C  0.27622376  0.18657352  0.45825976     0.20400
F291        F  0.25824750  0.16692800  0.48290718    -0.12400
F292        F  0.23641722  0.19158713  0.43694388    -0.14800
F293        F  0.35183956  0.22039275  0.42618177    -0.14800
F294        F  0.33003060  0.24393511  0.37927807    -0.12400
C295        C  0.28210834  0.17673497  0.56589358     0.25600
C296        C  0.30384239  0.19358021  0.54065722    -0.22500
C297        C  0.31389210  0.22298681  0.53919055     0.20500
C298        C  0.30269317  0.23552670  0.56347902     0.25500
C299        C  0.28116212  0.21867886  0.58923887    -0.22500
C300        C  0.27068735  0.18909278  0.58983509     0.20400
F301        F  0.25027061  0.17220089  0.61469089    -0.12400
F302        F  0.27205847  0.14823365  0.56753928    -0.14800
F303        F  0.31293057  0.26406328  0.56187764    -0.14800
F304        F  0.33531220  0.23965816  0.51531101    -0.12400
C305        C  0.09247184  0.27596926  0.45851245     0.25600
C306        C  0.11137546  0.30549564  0.45766604    -0.22500
C307        C  0.10647269  0.32230119  0.43247553     0.20500
C308        C  0.08301653  0.30995573  0.40846111     0.25500
C309        C  0.06409617  0.28035507  0.40879371    -0.22500
C310        C  0.06907010  0.26341990  0.43404222     0.20400
F311        F  0.05124275  0.23482223  0.43521776    -0.12400
F312        F  0.09719448  0.25921800  0.48217002    -0.14800
F313        F  0.07945101  0.32698529  0.38399551    -0.14800
F314        F  0.12443341  0.35087017  0.43121734    -0.12400
C315        C  0.10896844  0.28446347  0.56804042     0.25600
C316        C  0.11094261  0.30460654  0.54222361    -0.23900
C317        C  0.08881233  0.31193036  0.54031996     0.20500
C318        C  0.06512120  0.29948442  0.56441074     0.25500
C319        C  0.06326090  0.27947129  0.59056300    -0.22500
C320        C  0.08524137  0.27182385  0.59185505     0.20400
F321        F  0.08445616  0.25303534  0.61726005    -0.12400
F322        F  0.13016924  0.27714074  0.57039026    -0.14800
F323        F  0.04404802  0.30700923  0.56220002    -0.14800
F324        F  0.09071122  0.33193091  0.51617200    -0.12400
C325        C  0.24007549  0.30906486  0.43152434     0.25600
C326        C  0.22172614  0.28466983  0.41069840    -0.22500
C327        C  0.19140156  0.27228149  0.41532289     0.20500
C328        C  0.17977333  0.28455792  0.43902647     0.25500
C329        C  0.19802731  0.30897357  0.45916983    -0.22500
C330        C  0.22821926  0.32097428  0.45588808     0.20400
F331        F  0.24611974  0.34471912  0.47531835    -0.12400
F332        F  0.26938923  0.32151576  0.42820327    -0.14800
F333        F  0.15050531  0.27253852  0.44232223    -0.14800
F334        F  0.17274408  0.24877071  0.39603991    -0.12400
C335        C  0.18834510  0.28079864  0.54263132     0.25600
C336        C  0.19872633  0.31029495  0.54276743    -0.22500
C337        C  0.22121298  0.32773327  0.56670019     0.20500
C338        C  0.23314724  0.31588178  0.59045359     0.25500
C339        C  0.22230023  0.28619980  0.59116937    -0.22500
C340        C  0.19994105  0.26880251  0.56672709     0.20400
F341        F  0.18925079  0.24016728  0.56613104    -0.12400
F342        F  0.16614641  0.26347042  0.52023507    -0.14800
F343        F  0.25453960  0.33340258  0.61373463    -0.14800
F344        F  0.23150251  0.35628958  0.56725128    -0.12400
C345        C  0.19356309  0.43356882  0.43427400     0.25600
C346        C  0.21614690  0.43809792  0.40958492    -0.22500
C347        C  0.22739552  0.41908925  0.40982576     0.20500
C348        C  0.21605487  0.39591284  0.43363522     0.25500
C349        C  0.19352278  0.39133449  0.45803337    -0.22500
C350        C  0.18239422  0.41036292  0.45841708     0.20400
F351        F  0.16002007  0.40587630  0.48113467    -0.12400
F352        F  0.18232257  0.45155357  0.43511402    -0.14800
F353        F  0.22711392  0.37779807  0.43274418    -0.14800
F354        F  0.24875224  0.42225081  0.38605575    -0.12400
C355        C  0.23367693  0.43244161  0.56858459     0.25600
C356        C  0.21503098  0.43824175  0.59064194    -0.22500
C357        C  0.18475123  0.42060666  0.58737880     0.20500
C358        C  0.17352583  0.39723841  0.56352503     0.25500
C359        C  0.19223495  0.39153857  0.54196898    -0.22500
C360        C  0.22228816  0.40939539  0.54419777     0.20400
F361        F  0.24062507  0.40390958  0.52362942    -0.12400
F362        F  0.26294782  0.44892107  0.57069328    -0.14800
F363        F  0.14434057  0.38004903  0.56151730    -0.14800
F364        F  0.16595479  0.42524882  0.60821011    -0.12400
C365        C  0.16789408  0.33568509  0.79795435     0.47400
H366        H  0.16815284  0.33542990  0.76735051    -0.01600
C367        C  0.16743189  0.33603767  0.86953377     0.47500
H368        H  0.16727833  0.33626586  0.90013692    -0.01600
C369        C  0.18500460  0.32251150  0.81527639    -0.15300
C370        C  0.18082401  0.36560896  0.81467789    -0.15000
C371        C  0.13737453  0.31913312  0.81464641    -0.15400
C372        C  0.18497420  0.32283481  0.85291538    -0.15400
C373        C  0.18034890  0.36571983  0.85235598    -0.14900
C374        C  0.13716118  0.31911981  0.85239908    -0.15300
C375        C  0.33228603  0.16517300  0.86919641     0.47400
H376        H  0.33198149  0.16554951  0.89979500    -0.01600
C377        C  0.33316184  0.16447069  0.79762404     0.47500
H378        H  0.33362064  0.16405687  0.76703158    -0.01600
C379        C  0.31718756  0.13510022  0.85266344    -0.15300
C380        C  0.31726308  0.18034589  0.85130242    -0.15000
C381        C  0.36292938  0.17958402  0.85273173    -0.15400
C382        C  0.31743111  0.13481033  0.81497681    -0.15400
C383        C  0.31788083  0.18019727  0.81353943    -0.14900
C384        C  0.36334678  0.17902267  0.81513725    -0.15300
O385        O  0.47159259  0.21292161  0.96267711    -0.72400
O386        O  0.03046966  0.24210501  0.70389534    -0.72500
O387        O  0.47167886  0.21246914  0.70366544    -0.72500
O388        O  0.03045711  0.24230108  0.96294947    -0.72600
O389        O  0.02852582  0.28282993  0.96287994    -0.72500
O390        O  0.47041434  0.25327578  0.70503505    -0.72500
O391        O  0.02914150  0.28290881  0.70370709    -0.72500
O392        O  0.46987033  0.25348165  0.96414837    -0.72500
Ni393      Ni  0.50108276  0.22597328  0.99992295     1.25400
Ni394      Ni  0.49943220  0.26956200  0.00065749     1.25400
C395        C  0.46073244  0.22830430  0.95145551     0.89700
C396        C  0.03988719  0.26765661  0.71554878     0.89700
C397        C  0.46115506  0.22778703  0.71644341     0.89700
C398        C  0.03939631  0.26754768  0.95095244     0.89900
O399        O  0.21700863  0.24807445  0.96302288    -0.72400
O400        O  0.24486236  0.21662086  0.70327602    -0.72500
O401        O  0.21712638  0.24765331  0.70389643    -0.72500
O402        O  0.24456659  0.21685809  0.96245669    -0.72600
O403        O  0.28701364  0.25702295  0.96147936    -0.72500
O404        O  0.25973915  0.28750345  0.70474561    -0.72500
O405        O  0.28767290  0.25636742  0.70236595    -0.72500
O406        O  0.25936067  0.28828957  0.96379015    -0.72500
Ni407      Ni  0.22937847  0.23090327  0.99983147     1.25400
Ni408      Ni  0.27498835  0.27374135  0.99978463     1.25400
C409        C  0.23348605  0.27349926  0.95156828     0.89700
C410        C  0.27110396  0.23118211  0.71444008     0.89700
C411        C  0.23362050  0.27267768  0.71649635     0.89700
C412        C  0.27035101  0.23165466  0.94986447     0.89900
O413        O  0.25308716  0.47125358  0.96271786    -0.72400
O414        O  0.28271351  0.02867810  0.70418184    -0.72500
O415        O  0.25332551  0.47113342  0.70348249    -0.72500
O416        O  0.28266624  0.02888517  0.96337549    -0.72600
O417        O  0.24072976  0.02950717  0.96322390    -0.72500
O418        O  0.21152831  0.47202638  0.70494469    -0.72500
O419        O  0.24101122  0.02979449  0.70424611    -0.72500
O420        O  0.21105975  0.47167586  0.96386995    -0.72500
Ni421      Ni  0.26941006  0.99995466  0.66673748     1.25400
Ni422      Ni  0.22456490  0.00078150  0.66742764     1.25400
C423        C  0.22703161  0.46165883  0.95131525     0.89700
C424        C  0.26686125  0.03901000  0.71616505     0.89700
C425        C  0.22755744  0.46175378  0.71609309     0.89700
C426        C  0.26681591  0.03906128  0.95145508     0.89900
C427        C  0.30140223  0.06619167  0.76709214     0.25600
C428        C  0.27877575  0.06243803  0.74333246    -0.22500
C429        C  0.26835205  0.08208361  0.74467720     0.20500
C430        C  0.28070384  0.10527078  0.76865066     0.25500
C431        C  0.30331445  0.10902358  0.79202206    -0.22500
C432        C  0.31348103  0.08930057  0.79143319     0.20400
F433        F  0.33577819  0.09301443  0.81342968    -0.12400
F434        F  0.31190042  0.04759687  0.76671447    -0.14800
F435        F  0.27069298  0.12425360  0.76889210    -0.14800
F436        F  0.24700641  0.07958924  0.72173544    -0.12400
C437        C  0.26158742  0.06804205  0.90077262     0.25600
C438        C  0.27938303  0.06275816  0.92464826    -0.22500
C439        C  0.30964808  0.08103856  0.92357626     0.20500
C440        C  0.32171925  0.10427186  0.89979627     0.25500
C441        C  0.30399570  0.10947932  0.87612580    -0.22500
C442        C  0.27387297  0.09114814  0.87649517     0.20400
F443        F  0.25630201  0.09619441  0.85424896    -0.12400
F444        F  0.23236042  0.05086982  0.90082853    -0.14800
F445        F  0.35086878  0.12178620  0.89992301    -0.14800
F446        F  0.32762381  0.07710661  0.94648865    -0.12400
C447        C  0.43101421  0.19264874  0.90266244     0.25600
C448        C  0.43681736  0.21674751  0.92422660    -0.22500
C449        C  0.41879707  0.22921849  0.92038040     0.20500
C450        C  0.39498968  0.21719343  0.89675871     0.25500
C451        C  0.38907724  0.19296770  0.87596400    -0.22500
C452        C  0.40744244  0.18102444  0.87851476     0.20400
F453        F  0.40202601  0.15759044  0.85839579    -0.12400
F454        F  0.44806474  0.18025509  0.90489836    -0.14800
F455        F  0.37766801  0.22926966  0.89411005    -0.14800
F456        F  0.42357701  0.25258692  0.94023682    -0.12400
C457        C  0.40729376  0.22130434  0.79051830     0.25600
C458        C  0.38988488  0.19167233  0.79259294    -0.22500
C459        C  0.39660324  0.17396561  0.77110703     0.20500
C460        C  0.42033062  0.18569042  0.74719722     0.25500
C461        C  0.43746045  0.21549551  0.74395781    -0.22500
C462        C  0.43084805  0.23320183  0.76619404     0.20400
F463        F  0.44695740  0.26199186  0.76424609    -0.12400
F464        F  0.40073423  0.23869484  0.81092043    -0.14800
F465        F  0.42574247  0.16776873  0.72623118    -0.14800
F466        F  0.37994076  0.14523287  0.77307167    -0.12400
C467        C  0.26488063  0.19884930  0.76743928     0.25600
C468        C  0.28284481  0.21858714  0.74080167    -0.22500
C469        C  0.31225125  0.22568292  0.73869517     0.20500
C470        C  0.32344704  0.21326679  0.76257888     0.25500
C471        C  0.30564600  0.19378994  0.78937140    -0.22500
C472        C  0.27622383  0.18657366  0.79159326     0.20400
F473        F  0.25824761  0.16692824  0.81624081    -0.12400
F474        F  0.23641733  0.19158745  0.77027764    -0.14800
F475        F  0.35183951  0.22039258  0.75951483    -0.14800
F476        F  0.33003048  0.24393484  0.71261106    -0.12400
C477        C  0.28210838  0.17673501  0.89922691     0.25600
C478        C  0.30384245  0.19358024  0.87399057    -0.22500
C479        C  0.31389215  0.22298684  0.87252389     0.20500
C480        C  0.30269321  0.23552673  0.89681234     0.25500
C481        C  0.28116214  0.21867889  0.92257215    -0.22500
C482        C  0.27068737  0.18909282  0.92316838     0.20400
F483        F  0.25027063  0.17220092  0.94802419    -0.12400
F484        F  0.27205848  0.14823368  0.90087257    -0.14800
F485        F  0.31293059  0.26406330  0.89521094    -0.14800
F486        F  0.33531225  0.23965820  0.84864434    -0.12400
C487        C  0.09247178  0.27596926  0.79184588     0.25600
C488        C  0.11137535  0.30549565  0.79099953    -0.22500
C489        C  0.10647257  0.32230122  0.76580909     0.20500
C490        C  0.08301646  0.30995575  0.74179461     0.25500
C491        C  0.06409613  0.28035508  0.74212712    -0.22500
C492        C  0.06907006  0.26341990  0.76737563     0.20400
F493        F  0.05124275  0.23482222  0.76855108    -0.12400
F494        F  0.09719447  0.25921798  0.81550337    -0.14800
F495        F  0.07945096  0.32698534  0.71732901    -0.14800
F496        F  0.12443327  0.35087021  0.76455097    -0.12400
C497        C  0.10896839  0.28446342  0.90137377     0.25600
C498        C  0.11094258  0.30460656  0.87555706    -0.23900
C499        C  0.08881232  0.31193041  0.87365347     0.20500
C500        C  0.06512119  0.29948443  0.89774422     0.25500
C501        C  0.06326088  0.27947126  0.92389643    -0.22500
C502        C  0.08524133  0.27182379  0.92518841     0.20400
F503        F  0.08445617  0.25303531  0.95059344    -0.12400
F504        F  0.13016917  0.27714065  0.90372352    -0.14800
F505        F  0.04404805  0.30700930  0.89553360    -0.14800
F506        F  0.09071124  0.33193100  0.84950557    -0.12400
C507        C  0.24007545  0.30906488  0.76485775     0.25600
C508        C  0.22172613  0.28466987  0.74403176    -0.22500
C509        C  0.19140154  0.27228152  0.74865618     0.20500
C510        C  0.17977328  0.28455793  0.77235976     0.25500
C511        C  0.19802724  0.30897357  0.79250316    -0.22500
C512        C  0.22821919  0.32097429  0.78922147     0.20400
F513        F  0.24611965  0.34471910  0.80865180    -0.12400
F514        F  0.26938919  0.32151577  0.76153679    -0.14800
F515        F  0.15050525  0.27253851  0.77565549    -0.14800
F516        F  0.17274408  0.24877075  0.72937319    -0.12400
C517        C  0.18834512  0.28079865  0.87596463     0.25600
C518        C  0.19872630  0.31029495  0.87610077    -0.22500
C519        C  0.22121287  0.32773328  0.90003363     0.20500
C520        C  0.23314714  0.31588180  0.92378703     0.25500
C521        C  0.22230019  0.28619983  0.92450276    -0.22500
C522        C  0.19994105  0.26880253  0.90006043     0.20400
F523        F  0.18925083  0.24016730  0.89946437    -0.12400
F524        F  0.16614642  0.26347042  0.85356839    -0.14800
F525        F  0.25453938  0.33340259  0.94706821    -0.14800
F526        F  0.23150231  0.35628957  0.90058483    -0.12400
C527        C  0.19356314  0.43356890  0.76760742     0.25600
C528        C  0.21614685  0.43809792  0.74291823    -0.22500
C529        C  0.22739530  0.41908912  0.74315886     0.20500
C530        C  0.21605463  0.39591269  0.76696828     0.25500
C531        C  0.19352269  0.39133445  0.79136662    -0.22500
C532        C  0.18239424  0.41036297  0.79175045     0.20400
F533        F  0.16002020  0.40587644  0.81446816    -0.12400
F534        F  0.18232274  0.45155374  0.76844757    -0.14800
F535        F  0.22711350  0.37779777  0.76607699    -0.14800
F536        F  0.24875191  0.42225059  0.71938870    -0.12400
C537        C  0.23367696  0.43244155  0.90191794     0.25600
C538        C  0.21503104  0.43824172  0.92397529    -0.22500
C539        C  0.18475128  0.42060669  0.92071210     0.20500
C540        C  0.17352584  0.39723847  0.89685830     0.25500
C541        C  0.19223493  0.39153858  0.87530228    -0.22500
C542        C  0.22228815  0.40939533  0.87753110     0.20400
F543        F  0.24062504  0.40390946  0.85696278    -0.12400
F544        F  0.26294786  0.44892098  0.90402662    -0.14800
F545        F  0.14434056  0.38004916  0.89485054    -0.14800
F546        F  0.16595487  0.42524891  0.94154340    -0.12400
C547        C  0.16789411  0.83568510  0.13128765     0.47400
H548        H  0.16815290  0.83542992  0.10068381    -0.01600
C549        C  0.16743189  0.83603766  0.20286708     0.47500
H550        H  0.16727832  0.83626584  0.23347022    -0.01600
C551        C  0.18500462  0.82251150  0.14860971    -0.15300
C552        C  0.18082404  0.86560896  0.14801121    -0.15000
C553        C  0.13737456  0.81913315  0.14797968    -0.15400
C554        C  0.18497420  0.82283480  0.18624870    -0.15400
C555        C  0.18034894  0.86571983  0.18568930    -0.14900
C556        C  0.13716118  0.81911981  0.18573235    -0.15300
C557        C  0.33228600  0.66517307  0.20252975     0.47400
H558        H  0.33198148  0.66554959  0.23312834    -0.01600
C559        C  0.33316177  0.66447070  0.13095738     0.47500
H560        H  0.33362056  0.66405685  0.10036492    -0.01600
C561        C  0.31718750  0.63510027  0.18599681    -0.15300
C562        C  0.31726305  0.68034595  0.18463575    -0.15000
C563        C  0.36292935  0.67958406  0.18606505    -0.15400
C564        C  0.31743103  0.63481035  0.14831018    -0.15400
C565        C  0.31788080  0.68019732  0.14687275    -0.14900
C566        C  0.36334673  0.67902266  0.14847056    -0.15300
O567        O  0.47159256  0.71292161  0.29601041    -0.72400
O568        O  0.03046962  0.74210500  0.03722867    -0.72500
O569        O  0.47167883  0.71246908  0.03699874    -0.72500
O570        O  0.03045713  0.74230113  0.29628284    -0.72600
O571        O  0.02852578  0.78282994  0.29621319    -0.72500
O572        O  0.47041436  0.75327575  0.03836840    -0.72500
O573        O  0.02914149  0.78290882  0.03704041    -0.72500
O574        O  0.46987030  0.75348165  0.29748170    -0.72500
Ni575      Ni  0.50108275  0.72597328  0.33325622     1.25400
Ni576      Ni  0.49943220  0.76956200  0.33399075     1.25400
C577        C  0.46073240  0.72830430  0.28478884     0.89700
C578        C  0.03988716  0.76765660  0.04888212     0.89700
C579        C  0.46115504  0.72778698  0.04977673     0.89700
C580        C  0.03939630  0.76754770  0.28428574     0.89900
O581        O  0.21700862  0.74807445  0.29635623    -0.72400
O582        O  0.24486233  0.71662085  0.03660929    -0.72500
O583        O  0.21712638  0.74765331  0.03722976    -0.72500
O584        O  0.24456659  0.71685809  0.29579013    -0.72600
O585        O  0.28701361  0.75702298  0.29481275    -0.72500
O586        O  0.25973915  0.78750345  0.03807893    -0.72500
O587        O  0.28767288  0.75636740  0.03569919    -0.72500
O588        O  0.25936063  0.78828959  0.29712354    -0.72500
Ni589      Ni  0.22937848  0.73090329  0.33316486     1.25400
Ni590      Ni  0.27498834  0.77374139  0.33311802     1.25400
C591        C  0.23348603  0.77349926  0.28490164     0.89700
C592        C  0.27110395  0.73118210  0.04777332     0.89700
C593        C  0.23362051  0.77267767  0.04982968     0.89700
C594        C  0.27035099  0.73165468  0.28319789     0.89900
O595        O  0.25308714  0.97125361  0.29605116    -0.72400
O596        O  0.28271355  0.52867808  0.03751521    -0.72500
O597        O  0.25332550  0.97113337  0.03681583    -0.72500
O598        O  0.28266618  0.52888522  0.29670881    -0.72600
O599        O  0.24072970  0.52950720  0.29655730    -0.72500
O600        O  0.21152833  0.97202639  0.03827804    -0.72500
O601        O  0.24101125  0.52979446  0.03757944    -0.72500
O602        O  0.21105972  0.97167588  0.29720324    -0.72500
Ni603      Ni  0.26941011  0.49995463  0.00007084     1.25400
Ni604      Ni  0.22456496  0.50078145  0.00076098     1.25400
C605        C  0.22703159  0.96165886  0.28464855     0.89700
C606        C  0.26686128  0.53900999  0.04949839     0.89700
C607        C  0.22755744  0.96175376  0.04942643     0.89700
C608        C  0.26681584  0.53906132  0.28478843     0.89900
C609        C  0.30140222  0.56619170  0.10042553     0.25600
C610        C  0.27877575  0.56243803  0.07666582    -0.22500
C611        C  0.26835200  0.58208358  0.07801057     0.20500
C612        C  0.28070374  0.60527074  0.10198406     0.25500
C613        C  0.30331437  0.60902358  0.12535546    -0.22500
C614        C  0.31348099  0.58930060  0.12476660     0.20400
F615        F  0.33577817  0.59301449  0.14676308    -0.12400
F616        F  0.31190048  0.54759696  0.10004782    -0.14800
F617        F  0.27069283  0.62425352  0.10222551    -0.14800
F618        F  0.24700642  0.57958923  0.05506872    -0.12400
C619        C  0.26158734  0.56804211  0.23410597     0.25600
C620        C  0.27938294  0.56275821  0.25798161    -0.22500
C621        C  0.30964800  0.58103860  0.25690962     0.20500
C622        C  0.32171917  0.60427192  0.23312966     0.25500
C623        C  0.30399562  0.60947939  0.20945919    -0.22500
C624        C  0.27387289  0.59114821  0.20982854     0.20400
F625        F  0.25630195  0.59619450  0.18758233    -0.12400
F626        F  0.23236033  0.55086991  0.23416190    -0.14800
F627        F  0.35086870  0.62178626  0.23325643    -0.14800
F628        F  0.32762373  0.57710661  0.27982196    -0.12400
C629        C  0.43101415  0.69264873  0.23599579     0.25600
C630        C  0.43681731  0.71674751  0.25755995    -0.22500
C631        C  0.41879705  0.72921852  0.25371374     0.20500
C632        C  0.39498965  0.71719347  0.23009207     0.25500
C633        C  0.38907721  0.69296774  0.20929733    -0.22500
C634        C  0.40744238  0.68102446  0.21184810     0.20400
F635        F  0.40202593  0.65759046  0.19172911    -0.12400
F636        F  0.44806468  0.68025507  0.23823169    -0.14800
F637        F  0.37766798  0.72926971  0.22744343    -0.14800
F638        F  0.42357704  0.75258697  0.27357014    -0.12400
C639        C  0.40729376  0.72130428  0.12385165     0.25600
C640        C  0.38988482  0.69167228  0.12592623    -0.22500
C641        C  0.39660314  0.67396555  0.10444025     0.20500
C642        C  0.42033052  0.68569036  0.08053044     0.25500
C643        C  0.43746041  0.71549545  0.07729110    -0.22500
C644        C  0.43084805  0.73320176  0.09952739     0.20400
F645        F  0.44695742  0.76199178  0.09757947    -0.12400
F646        F  0.40073426  0.73869479  0.14425379    -0.14800
F647        F  0.42574231  0.66776867  0.05956430    -0.14800
F648        F  0.37994058  0.64523282  0.10640478    -0.12400
C649        C  0.26488061  0.69884933  0.10077253     0.25600
C650        C  0.28284480  0.71858715  0.07413491    -0.22500
C651        C  0.31225124  0.72568297  0.07202847     0.20500
C652        C  0.32344703  0.71326685  0.09591220     0.25500
C653        C  0.30564597  0.69378998  0.12270470    -0.22500
C654        C  0.27622381  0.68657371  0.12492654     0.20400
F655        F  0.25824758  0.66692833  0.14957413    -0.12400
F656        F  0.23641732  0.69158748  0.10361084    -0.14800
F657        F  0.35183950  0.72039265  0.09284817    -0.14800
F658        F  0.33003050  0.74393494  0.04594442    -0.12400
C659        C  0.28210841  0.67673506  0.23256034     0.25600
C660        C  0.30384240  0.69358029  0.20732391    -0.22500
C661        C  0.31389207  0.72298688  0.20585723     0.20500
C662        C  0.30269312  0.73552675  0.23014570     0.25500
C663        C  0.28116211  0.71867891  0.25590556    -0.22500
C664        C  0.27068741  0.68909285  0.25650185     0.20400
F665        F  0.25027075  0.67220097  0.28135776    -0.12400
F666        F  0.27205859  0.64823376  0.23420611    -0.14800
F667        F  0.31293047  0.76406331  0.22854431    -0.14800
F668        F  0.33531215  0.73965826  0.18197768    -0.12400
C669        C  0.09247187  0.77596927  0.12517909     0.25600
C670        C  0.11137539  0.80549566  0.12433277    -0.22500
C671        C  0.10647254  0.82230122  0.09914239     0.20500
C672        C  0.08301641  0.80995575  0.07512794     0.25500
C673        C  0.06409611  0.78035508  0.07546045    -0.22500
C674        C  0.06907011  0.76341991  0.10070889     0.20400
F675        F  0.05124280  0.73482223  0.10188437    -0.12400
F676        F  0.09719459  0.75921800  0.14883654    -0.14800
F677        F  0.07945084  0.82698533  0.05066241    -0.14800
F678        F  0.12443317  0.85087023  0.09788433    -0.12400
C679        C  0.10896840  0.78446343  0.23470712     0.25600
C680        C  0.11094258  0.80460652  0.20889033    -0.23900
C681        C  0.08881230  0.81193034  0.20698669     0.20500
C682        C  0.06512115  0.79948436  0.23107744     0.25500
C683        C  0.06326087  0.77947125  0.25722973    -0.22500
C684        C  0.08524134  0.77182381  0.25852178     0.20400
F685        F  0.08445618  0.75303535  0.28392685    -0.12400
F686        F  0.13016920  0.77714070  0.23705696    -0.14800
F687        F  0.04404797  0.80700916  0.22886671    -0.14800
F688        F  0.09071123  0.83193095  0.18283880    -0.12400
C689        C  0.24007548  0.80906499  0.09819092     0.25600
C690        C  0.22172615  0.78466986  0.07736512    -0.22500
C691        C  0.19140157  0.77228140  0.08198974     0.20500
C692        C  0.17977332  0.78455783  0.10569330     0.25500
C693        C  0.19802728  0.80897357  0.12583651    -0.22500
C694        C  0.22821923  0.82097439  0.12255464     0.20400
F695        F  0.24611968  0.84471929  0.14198482    -0.12400
F696        F  0.26938921  0.82151599  0.09486974    -0.14800
F697        F  0.15050530  0.77253833  0.10898919    -0.14800
F698        F  0.17274410  0.74877046  0.06270704    -0.12400
C699        C  0.18834504  0.78079864  0.20929804     0.25600
C700        C  0.19872628  0.81029494  0.20943410    -0.22500
C701        C  0.22121288  0.82773327  0.23336690     0.20500
C702        C  0.23314714  0.81588180  0.25712031     0.25500
C703        C  0.22230015  0.78619982  0.25783612    -0.22500
C704        C  0.19994097  0.76880251  0.23339383     0.20400
F705        F  0.18925072  0.74016727  0.23279779    -0.12400
F706        F  0.16614634  0.76347040  0.18690181    -0.14800
F707        F  0.25453948  0.83340262  0.28040135    -0.14800
F708        F  0.23150240  0.85628958  0.23391796    -0.12400
C709        C  0.19356305  0.93356882  0.10094067     0.25600
C710        C  0.21614683  0.93809789  0.07625155    -0.22500
C711        C  0.22739538  0.91908917  0.07649229     0.20500
C712        C  0.21605472  0.89591275  0.10030173     0.25500
C713        C  0.19352270  0.89133445  0.12469997    -0.22500
C714        C  0.18239416  0.91036289  0.12508371     0.20400
F715        F  0.16002005  0.90587630  0.14780135    -0.12400
F716        F  0.18232262  0.95155362  0.10178078    -0.14800
F717        F  0.22711368  0.87779790  0.09941055    -0.14800
F718        F  0.24875208  0.92225070  0.05272225    -0.12400
C719        C  0.23367697  0.93244158  0.23525126     0.25600
C720        C  0.21503103  0.93824172  0.25730861    -0.22500
C721        C  0.18475128  0.92060664  0.25404545     0.20500
C722        C  0.17352587  0.89723844  0.23019161     0.25500
C723        C  0.19223497  0.89153858  0.20863560    -0.22500
C724        C  0.22228819  0.90939537  0.21086440     0.20400
F725        F  0.24062509  0.90390959  0.19029598    -0.12400
F726        F  0.26294787  0.94892102  0.23735995    -0.14800
F727        F  0.14434060  0.88004912  0.22818379    -0.14800
F728        F  0.16595485  0.92524882  0.27487675    -0.12400
C729        C  0.16789408  0.83568509  0.46462102     0.47400
H730        H  0.16815285  0.83542992  0.43401718    -0.01600
C731        C  0.16743190  0.83603767  0.53620044     0.47500
H732        H  0.16727835  0.83626585  0.56680359    -0.01600
C733        C  0.18500458  0.82251148  0.48194305    -0.15300
C734        C  0.18082401  0.86560895  0.48134459    -0.15000
C735        C  0.13737454  0.81913313  0.48131307    -0.15400
C736        C  0.18497421  0.82283482  0.51958204    -0.15400
C737        C  0.18034891  0.86571982  0.51902267    -0.14900
C738        C  0.13716118  0.81911981  0.51906574    -0.15300
C739        C  0.33228602  0.66517305  0.53586306     0.47400
H740        H  0.33198148  0.66554956  0.56646165    -0.01600
C741        C  0.33316182  0.66447070  0.46429069     0.47500
H742        H  0.33362061  0.66405687  0.43369823    -0.01600
C743        C  0.31718753  0.63510026  0.51933011    -0.15300
C744        C  0.31726306  0.68034593  0.51796907    -0.15000
C745        C  0.36292938  0.67958408  0.51939837    -0.15400
C746        C  0.31743111  0.63481035  0.48164348    -0.15400
C747        C  0.31788082  0.68019730  0.48020608    -0.14900
C748        C  0.36334677  0.67902270  0.48180388    -0.15300
O749        O  0.47159258  0.71292162  0.62934375    -0.72400
O750        O  0.03046957  0.74210493  0.37056214    -0.72500
O751        O  0.47167887  0.71246914  0.37033206    -0.72500
O752        O  0.03045712  0.74230117  0.62961618    -0.72600
O753        O  0.02852580  0.78283000  0.62954660    -0.72500
O754        O  0.47041439  0.75327580  0.37170172    -0.72500
O755        O  0.02914149  0.78290877  0.37037380    -0.72500
O756        O  0.46987031  0.75348166  0.63081507    -0.72500
Ni757      Ni  0.50108273  0.72597328  0.66658961     1.25400
Ni758      Ni  0.49943217  0.76956199  0.66732418     1.25400
C759        C  0.46073243  0.72830432  0.61812218     0.89700
C760        C  0.03988715  0.76765655  0.38221552     0.89700
C761        C  0.46115507  0.72778704  0.38311004     0.89700
C762        C  0.03939631  0.76754776  0.61761912     0.89900
O763        O  0.21700857  0.74807440  0.62968955    -0.72400
O764        O  0.24486242  0.71662091  0.36994266    -0.72500
O765        O  0.21712642  0.74765334  0.37056313    -0.72500
O766        O  0.24456654  0.71685803  0.62912340    -0.72600
O767        O  0.28701357  0.75702291  0.62814605    -0.72500
O768        O  0.25973918  0.78750348  0.37141231    -0.72500
O769        O  0.28767296  0.75636746  0.36903255    -0.72500
O770        O  0.25936060  0.78828953  0.63045686    -0.72500
Ni771      Ni  0.22937843  0.73090322  0.66649816     1.25400
Ni772      Ni  0.27498830  0.77374130  0.66645133     1.25400
C773        C  0.23348599  0.77349921  0.61823496     0.89700
C774        C  0.27110403  0.73118216  0.38110669     0.89700
C775        C  0.23362054  0.77267771  0.38316305     0.89700
C776        C  0.27035095  0.73165461  0.61653117     0.89900
O777        O  0.25308709  0.97125364  0.62938447    -0.72400
O778        O  0.28271348  0.52867808  0.37084855    -0.72500
O779        O  0.25332554  0.97113338  0.37014919    -0.72500
O780        O  0.28266619  0.52888524  0.63004215    -0.72600
O781        O  0.24072970  0.52950722  0.62989061    -0.72500
O782        O  0.21152835  0.97202635  0.37161140    -0.72500
O783        O  0.24101119  0.52979448  0.37091278    -0.72500
O784        O  0.21105967  0.97167591  0.63053660    -0.72500
Ni785      Ni  0.26941006  0.49995466  0.33340416     1.25400
Ni786      Ni  0.22456490  0.50078149  0.33409429     1.25400
C787        C  0.22703153  0.96165889  0.61798188     0.89700
C788        C  0.26686121  0.53900999  0.38283175     0.89700
C789        C  0.22755748  0.96175374  0.38275980     0.89700
C790        C  0.26681585  0.53906134  0.61812177     0.89900
C791        C  0.30140225  0.56619170  0.43375878     0.25600
C792        C  0.27877571  0.56243802  0.40999917    -0.22500
C793        C  0.26835197  0.58208357  0.41134396     0.20500
C794        C  0.28070376  0.60527074  0.43531743     0.25500
C795        C  0.30331443  0.60902358  0.45868876    -0.22500
C796        C  0.31348106  0.58930061  0.45809982     0.20400
F797        F  0.33577833  0.59301455  0.48009617    -0.12400
F798        F  0.31190054  0.54759699  0.43338096    -0.14800
F799        F  0.27069284  0.62425351  0.43555898    -0.14800
F800        F  0.24700630  0.57958918  0.38840223    -0.12400
C801        C  0.26158736  0.56804215  0.56743935     0.25600
C802        C  0.27938296  0.56275823  0.59131495    -0.22500
C803        C  0.30964802  0.58103861  0.59024293     0.20500
C804        C  0.32171919  0.60427191  0.56646296     0.25500
C805        C  0.30399565  0.60947937  0.54279247    -0.22500
C806        C  0.27387292  0.59114822  0.54316186     0.20400
F807        F  0.25630198  0.59619454  0.52091569    -0.12400
F808        F  0.23236034  0.55087000  0.56749535    -0.14800
F809        F  0.35086872  0.62178627  0.56658975    -0.14800
F810        F  0.32762375  0.57710665  0.61315532    -0.12400
C811        C  0.43101426  0.69264883  0.56932900     0.25600
C812        C  0.43681736  0.71674755  0.59089326    -0.22500
C813        C  0.41879703  0.72921849  0.58704714     0.20500
C814        C  0.39498965  0.71719345  0.56342543     0.25500
C815        C  0.38907725  0.69296776  0.54263065    -0.22500
C816        C  0.40744247  0.68102453  0.54518135     0.20400
F817        F  0.40202605  0.65759054  0.52506235    -0.12400
F818        F  0.44806486  0.68025526  0.57156479    -0.14800
F819        F  0.37766796  0.72926967  0.56077683    -0.14800
F820        F  0.42357693  0.75258686  0.60690368    -0.12400
C821        C  0.40729382  0.72130433  0.45718498     0.25600
C822        C  0.38988486  0.69167233  0.45925953    -0.22500
C823        C  0.39660316  0.67396559  0.43777354     0.20500
C824        C  0.42033054  0.68569040  0.41386372     0.25500
C825        C  0.43746043  0.71549549  0.41062439    -0.22500
C826        C  0.43084810  0.73320180  0.43286072     0.20400
F827        F  0.44695754  0.76199182  0.43091287    -0.12400
F828        F  0.40073437  0.73869485  0.47758720    -0.14800
F829        F  0.42574233  0.66776871  0.39289759    -0.14800
F830        F  0.37994061  0.64523286  0.43973807    -0.12400
C831        C  0.26488067  0.69884932  0.43410583     0.25600
C832        C  0.28284488  0.71858720  0.40746829    -0.22500
C833        C  0.31225133  0.72568302  0.40536188     0.20500
C834        C  0.32344711  0.71326690  0.42924562     0.25500
C835        C  0.30564602  0.69378999  0.45603806    -0.22500
C836        C  0.27622385  0.68657368  0.45825984     0.20400
F837        F  0.25824760  0.66692825  0.48290736    -0.12400
F838        F  0.23641735  0.69158741  0.43694408    -0.14800
F839        F  0.35183960  0.72039276  0.42618171    -0.14800
F840        F  0.33003060  0.74393497  0.37927783    -0.12400
C841        C  0.28210837  0.67673501  0.56589358     0.25600
C842        C  0.30384240  0.69358026  0.54065720    -0.22500
C843        C  0.31389205  0.72298685  0.53919051     0.20500
C844        C  0.30269309  0.73552672  0.56347898     0.25500
C845        C  0.28116207  0.71867886  0.58923883    -0.22500
C846        C  0.27068735  0.68909279  0.58983508     0.20400
F847        F  0.25027064  0.67220089  0.61469093    -0.12400
F848        F  0.27205852  0.64823370  0.56753929    -0.14800
F849        F  0.31293044  0.76406328  0.56187760    -0.14800
F850        F  0.33531214  0.73965823  0.51531096    -0.12400
C851        C  0.09247179  0.77596924  0.45851256     0.25600
C852        C  0.11137537  0.80549563  0.45766617    -0.22500
C853        C  0.10647259  0.82230119  0.43247571     0.20500
C854        C  0.08301644  0.80995572  0.40846128     0.25500
C855        C  0.06409613  0.78035504  0.40879381    -0.22500
C856        C  0.06907008  0.76341987  0.43404230     0.20400
F857        F  0.05124278  0.73482220  0.43521777    -0.12400
F858        F  0.09719443  0.75921799  0.48217015    -0.14800
F859        F  0.07945088  0.82698531  0.38399575    -0.14800
F860        F  0.12443327  0.85087019  0.43121759    -0.12400
C861        C  0.10896839  0.78446346  0.56804048     0.25600
C862        C  0.11094258  0.80460657  0.54222372    -0.23900
C863        C  0.08881232  0.81193041  0.54032008     0.20500
C864        C  0.06512117  0.79948444  0.56441082     0.25500
C865        C  0.06326088  0.77947132  0.59056311    -0.22500
C866        C  0.08524132  0.77182384  0.59185511     0.20400
F867        F  0.08445610  0.75303530  0.61726009    -0.12400
F868        F  0.13016918  0.77714073  0.57039032    -0.14800
F869        F  0.04404799  0.80700924  0.56220008    -0.14800
F870        F  0.09071125  0.83193100  0.51617215    -0.12400
C871        C  0.24007545  0.80906489  0.43152446     0.25600
C872        C  0.22172614  0.78466990  0.41069842    -0.22500
C873        C  0.19140156  0.77228156  0.41532278     0.20500
C874        C  0.17977328  0.78455796  0.43902635     0.25500
C875        C  0.19802723  0.80897356  0.45916982    -0.22500
C876        C  0.22821917  0.82097426  0.45588819     0.20400
F877        F  0.24611961  0.84471902  0.47531863    -0.12400
F878        F  0.26938919  0.82151575  0.42820356    -0.14800
F879        F  0.15050525  0.77253856  0.44232202    -0.14800
F880        F  0.17274411  0.74877077  0.39603982    -0.12400
C881        C  0.18834505  0.78079866  0.54263134     0.25600
C882        C  0.19872630  0.81029496  0.54276743    -0.22500
C883        C  0.22121288  0.82773327  0.56670028     0.20500
C884        C  0.23314715  0.81588178  0.59045367     0.25500
C885        C  0.22230014  0.78619980  0.59116944    -0.22500
C886        C  0.19994096  0.76880251  0.56672714     0.20400
F887        F  0.18925068  0.74016727  0.56613109    -0.12400
F888        F  0.16614634  0.76347045  0.52023509    -0.14800
F889        F  0.25453948  0.83340258  0.61373474    -0.14800
F890        F  0.23150236  0.85628956  0.56725146    -0.12400
C891        C  0.19356319  0.93356889  0.43427415     0.25600
C892        C  0.21614688  0.93809789  0.40958494    -0.22500
C893        C  0.22739532  0.91908907  0.40982557     0.20500
C894        C  0.21605465  0.89591265  0.43363502     0.25500
C895        C  0.19352270  0.89133443  0.45803334    -0.22500
C896        C  0.18239426  0.91036295  0.45841716     0.20400
F897        F  0.16002020  0.90587642  0.48113486    -0.12400
F898        F  0.18232283  0.95155377  0.43511435    -0.14800
F899        F  0.22711351  0.87779773  0.43274377    -0.14800
F900        F  0.24875191  0.92225052  0.38605541    -0.12400
C901        C  0.23367692  0.93244161  0.56858461     0.25600
C902        C  0.21503097  0.93824176  0.59064194    -0.22500
C903        C  0.18475122  0.92060667  0.58737877     0.20500
C904        C  0.17352581  0.89723842  0.56352500     0.25500
C905        C  0.19223493  0.89153857  0.54196898    -0.22500
C906        C  0.22228814  0.90939538  0.54419778     0.20400
F907        F  0.24062507  0.90390957  0.52362946    -0.12400
F908        F  0.26294781  0.94892108  0.57069329    -0.14800
F909        F  0.14434054  0.88004908  0.56151722    -0.14800
F910        F  0.16595479  0.92524886  0.60821003    -0.12400
C911        C  0.16789412  0.83568508  0.79795430     0.47400
H912        H  0.16815289  0.83542990  0.76735046    -0.01600
C913        C  0.16743192  0.83603764  0.86953372     0.47500
H914        H  0.16727836  0.83626582  0.90013687    -0.01600
C915        C  0.18500462  0.82251148  0.81527633    -0.15300
C916        C  0.18082408  0.86560894  0.81467786    -0.15000
C917        C  0.13737457  0.81913313  0.81464635    -0.15400
C918        C  0.18497421  0.82283477  0.85291532    -0.15400
C919        C  0.18034897  0.86571981  0.85235595    -0.14900
C920        C  0.13716121  0.81911981  0.85239902    -0.15300
C921        C  0.33228597  0.66517300  0.86919643     0.47400
H922        H  0.33198143  0.66554952  0.89979501    -0.01600
C923        C  0.33316175  0.66447063  0.79762405     0.47500
H924        H  0.33362054  0.66405679  0.76703159    -0.01600
C925        C  0.31718746  0.63510021  0.85266348    -0.15300
C926        C  0.31726303  0.68034589  0.85130244    -0.15000
C927        C  0.36292931  0.67958401  0.85273172    -0.15400
C928        C  0.31743102  0.63481029  0.81497686    -0.15400
C929        C  0.31788079  0.68019726  0.81353944    -0.14900
C930        C  0.36334670  0.67902260  0.81513724    -0.15300
O931        O  0.47159252  0.71292154  0.96267708    -0.72400
O932        O  0.03046956  0.74210493  0.70389545    -0.72500
O933        O  0.47167880  0.71246909  0.70366540    -0.72500
O934        O  0.03045709  0.74230115  0.96294938    -0.72600
O935        O  0.02852578  0.78282999  0.96287978    -0.72500
O936        O  0.47041432  0.75327575  0.70503511    -0.72500
O937        O  0.02914144  0.78290875  0.70370722    -0.72500
O938        O  0.46987028  0.75348159  0.96414837    -0.72500
Ni939      Ni  0.50108272  0.72597321  0.99992288     1.25400
Ni940      Ni  0.49943218  0.76956194  0.00065743     1.25400
C941        C  0.46073237  0.72830424  0.95145552     0.89700
C942        C  0.03988712  0.76765653  0.71554889     0.89700
C943        C  0.46115499  0.72778698  0.71644339     0.89700
C944        C  0.03939628  0.76754773  0.95095231     0.89900
O945        O  0.21700861  0.74807441  0.96302284    -0.72400
O946        O  0.24486236  0.71662081  0.70327594    -0.72500
O947        O  0.21712637  0.74765324  0.70389647    -0.72500
O948        O  0.24456651  0.71685800  0.96245676    -0.72600
O949        O  0.28701354  0.75702288  0.96147940    -0.72500
O950        O  0.25973914  0.78750338  0.70474565    -0.72500
O951        O  0.28767290  0.75636737  0.70236585    -0.72500
O952        O  0.25936064  0.78828954  0.96379013    -0.72500
Ni953      Ni  0.22937842  0.73090324  0.99983149     1.25400
Ni954      Ni  0.27498829  0.77374133  0.99978464     1.25400
C955        C  0.23348604  0.77349921  0.95156822     0.89700
C956        C  0.27110398  0.73118205  0.71443997     0.89700
C957        C  0.23362050  0.77267760  0.71649639     0.89700
C958        C  0.27035092  0.73165458  0.94986454     0.89900
O959        O  0.25308711  0.97125357  0.96271784    -0.72400
O960        O  0.28271344  0.52867810  0.70418185    -0.72500
O961        O  0.25332556  0.97113341  0.70348250    -0.72500
O962        O  0.28266622  0.52888517  0.96337547    -0.72600
O963        O  0.24072973  0.52950714  0.96322397    -0.72500
O964        O  0.21152836  0.97202638  0.70494473    -0.72500
O965        O  0.24101113  0.52979448  0.70424608    -0.72500
O966        O  0.21105971  0.97167588  0.96386988    -0.72500
Ni967      Ni  0.26941004  0.49995467  0.66673748     1.25400
Ni968      Ni  0.22456487  0.50078150  0.66742759     1.25400
C969        C  0.22703157  0.96165883  0.95131522     0.89700
C970        C  0.26686116  0.53900999  0.71616504     0.89700
C971        C  0.22755750  0.96175376  0.71609310     0.89700
C972        C  0.26681587  0.53906126  0.95145509     0.89900
C973        C  0.30140215  0.56619165  0.76709209     0.25600
C974        C  0.27877563  0.56243799  0.74333249    -0.22500
C975        C  0.26835187  0.58208353  0.74467733     0.20500
C976        C  0.28070365  0.60527068  0.76865083     0.25500
C977        C  0.30331433  0.60902352  0.79202212    -0.22500
C978        C  0.31348097  0.58930055  0.79143314     0.20400
F979        F  0.33577824  0.59301446  0.81342946    -0.12400
F980        F  0.31190038  0.54759688  0.76671431    -0.14800
F981        F  0.27069273  0.62425345  0.76889238    -0.14800
F982        F  0.24700620  0.57958914  0.72173561    -0.12400
C983        C  0.26158733  0.56804209  0.90077273     0.25600
C984        C  0.27938296  0.56275814  0.92464827    -0.22500
C985        C  0.30964802  0.58103850  0.92357618     0.20500
C986        C  0.32171917  0.60427183  0.89979625     0.25500
C987        C  0.30399560  0.60947933  0.87612586    -0.22500
C988        C  0.27387287  0.59114820  0.87649531     0.20400
F989        F  0.25630190  0.59619456  0.85424924    -0.12400
F990        F  0.23236032  0.55086990  0.90082871    -0.14800
F991        F  0.35086871  0.62178614  0.89992292    -0.14800
F992        F  0.32762378  0.57710646  0.94648841    -0.12400
C993        C  0.43101411  0.69264867  0.90266247     0.25600
C994        C  0.43681727  0.71674745  0.92422664    -0.22500
C995        C  0.41879701  0.72921847  0.92038043     0.20500
C996        C  0.39498963  0.71719343  0.89675873     0.25500
C997        C  0.38907717  0.69296769  0.87596401    -0.22500
C998        C  0.40744232  0.68102439  0.87851481     0.20400
F999        F  0.40202583  0.65759034  0.85839588    -0.12400
F1000       F  0.44806464  0.68025502  0.90489836    -0.14800
F1001       F  0.37766800  0.72926971  0.89411005    -0.14800
F1002       F  0.42357701  0.75258693  0.94023683    -0.12400
C1003       C  0.40729375  0.72130422  0.79051837     0.25600
C1004       C  0.38988479  0.69167222  0.79259289    -0.22500
C1005       C  0.39660310  0.67396550  0.77110686     0.20500
C1006       C  0.42033048  0.68569033  0.74719706     0.25500
C1007       C  0.43746034  0.71549542  0.74395773    -0.22500
C1008       C  0.43084799  0.73320171  0.76619406     0.20400
F1009       F  0.44695736  0.76199174  0.76424616    -0.12400
F1010       F  0.40073434  0.73869472  0.81092067    -0.14800
F1011       F  0.42574229  0.66776866  0.72623092    -0.14800
F1012       F  0.37994055  0.64523277  0.77307139    -0.12400
C1013       C  0.26488060  0.69884912  0.76743902     0.25600
C1014       C  0.28284484  0.71858709  0.74080157    -0.22500
C1015       C  0.31225133  0.72568305  0.73869532     0.20500
C1016       C  0.32344712  0.71326694  0.76257907     0.25500
C1017       C  0.30564601  0.69378995  0.78937142    -0.22500
C1018       C  0.27622380  0.68657354  0.79159308     0.20400
F1019       F  0.25824755  0.66692804  0.81624053    -0.12400
F1020       F  0.23641724  0.69158707  0.77027712    -0.14800
F1021       F  0.35183964  0.72039287  0.75951524    -0.14800
F1022       F  0.33003066  0.74393517  0.71261145    -0.12400
C1023       C  0.28210828  0.67673496  0.89922689     0.25600
C1024       C  0.30384237  0.69358022  0.87399059    -0.22500
C1025       C  0.31389208  0.72298681  0.87252397     0.20500
C1026       C  0.30269312  0.73552667  0.89681243     0.25500
C1027       C  0.28116204  0.71867881  0.92257221    -0.22500
C1028       C  0.27068726  0.68909274  0.92316839     0.20400
F1029       F  0.25027047  0.67220082  0.94802413    -0.12400
F1030       F  0.27205836  0.64823363  0.90087250    -0.14800
F1031       F  0.31293050  0.76406324  0.89521110    -0.14800
F1032       F  0.33531220  0.73965820  0.84864448    -0.12400
C1033       C  0.09247184  0.77596923  0.79184582     0.25600
C1034       C  0.11137539  0.80549562  0.79099946    -0.22500
C1035       C  0.10647257  0.82230116  0.76580901     0.20500
C1036       C  0.08301642  0.80995569  0.74179459     0.25500
C1037       C  0.06409611  0.78035502  0.74212715    -0.22500
C1038       C  0.06907011  0.76341985  0.76737560     0.20400
F1039       F  0.05124279  0.73482218  0.76855109    -0.12400
F1040       F  0.09719452  0.75921797  0.81550335    -0.14800
F1041       F  0.07945084  0.82698526  0.71732906    -0.14800
F1042       F  0.12443322  0.85087016  0.76455089    -0.12400
C1043       C  0.10896839  0.78446346  0.90137376     0.25600
C1044       C  0.11094260  0.80460657  0.87555700    -0.23900
C1045       C  0.08881236  0.81193044  0.87365337     0.20500
C1046       C  0.06512120  0.79948446  0.89774409     0.25500
C1047       C  0.06326087  0.77947129  0.92389632    -0.22500
C1048       C  0.08524132  0.77182384  0.92518839     0.20400
F1049       F  0.08445613  0.75303535  0.95059342    -0.12400
F1050       F  0.13016915  0.77714067  0.90372354    -0.14800
F1051       F  0.04404803  0.80700928  0.89553336    -0.14800
F1052       F  0.09071131  0.83193106  0.84950548    -0.12400
C1053       C  0.24007547  0.80906479  0.76485779     0.25600
C1054       C  0.22172613  0.78466979  0.74403179    -0.22500
C1055       C  0.19140154  0.77228148  0.74865615     0.20500
C1056       C  0.17977329  0.78455790  0.77235972     0.25500
C1057       C  0.19802726  0.80897353  0.79250312    -0.22500
C1058       C  0.22821921  0.82097423  0.78922146     0.20400
F1059       F  0.24611968  0.84471904  0.80865178    -0.12400
F1060       F  0.26938921  0.82151564  0.76153684    -0.14800
F1061       F  0.15050526  0.77253851  0.77565543    -0.14800
F1062       F  0.17274407  0.74877070  0.72937316    -0.12400
C1063       C  0.18834501  0.78079859  0.87596464     0.25600
C1064       C  0.19872629  0.81029490  0.87610068    -0.22500
C1065       C  0.22121299  0.82773325  0.90003336     0.20500
C1066       C  0.23314725  0.81588177  0.92378676     0.25500
C1067       C  0.22230019  0.78619978  0.92450265    -0.22500
C1068       C  0.19994096  0.76880247  0.90006042     0.20400
F1069       F  0.18925066  0.74016722  0.89946444    -0.12400
F1070       F  0.16614629  0.76347037  0.85356843    -0.14800
F1071       F  0.25453966  0.83340261  0.94706771    -0.14800
F1072       F  0.23150256  0.85628957  0.90058435    -0.12400
C1073       C  0.19356312  0.93356882  0.76760733     0.25600
C1074       C  0.21614690  0.93809788  0.74291821    -0.22500
C1075       C  0.22739543  0.91908915  0.74315893     0.20500
C1076       C  0.21605478  0.89591273  0.76696838     0.25500
C1077       C  0.19352275  0.89133443  0.79136661    -0.22500
C1078       C  0.18239421  0.91036287  0.79175034     0.20400
F1079       F  0.16002007  0.90587625  0.81446794    -0.12400
F1080       F  0.18232268  0.95155362  0.76844745    -0.14800
F1081       F  0.22711374  0.87779788  0.76607723    -0.14800
F1082       F  0.24875209  0.92225065  0.71938882    -0.12400
C1083       C  0.23367696  0.93244160  0.90191788     0.25600
C1084       C  0.21503101  0.93824170  0.92397528    -0.22500
C1085       C  0.18475126  0.92060662  0.92071212     0.20500
C1086       C  0.17352587  0.89723839  0.89685832     0.25500
C1087       C  0.19223498  0.89153856  0.87530227    -0.22500
C1088       C  0.22228819  0.90939539  0.87753102     0.20400
F1089       F  0.24062511  0.90390965  0.85696257    -0.12400
F1090       F  0.26294785  0.94892108  0.90402655    -0.14800
F1091       F  0.14434060  0.88004903  0.89485058    -0.14800
F1092       F  0.16595483  0.92524877  0.94154344    -0.12400
C1093       C  0.66789416  0.33568513  0.13128768     0.47400
H1094       H  0.66815295  0.33542997  0.10068385    -0.01600
C1095       C  0.66743195  0.33603769  0.20286711     0.47500
H1096       H  0.66727838  0.33626588  0.23347026    -0.01600
C1097       C  0.68500467  0.32251153  0.14860972    -0.15300
C1098       C  0.68082409  0.36560898  0.14801126    -0.15000
C1099       C  0.63737461  0.31913317  0.14797971    -0.15400
C1100       C  0.68497425  0.32283482  0.18624872    -0.15400
C1101       C  0.68034899  0.36571985  0.18568934    -0.14900
C1102       C  0.63716124  0.31911985  0.18573238    -0.15300
C1103       C  0.83228597  0.16517304  0.20252977     0.47400
H1104       H  0.83198144  0.16554957  0.23312836    -0.01600
C1105       C  0.83316176  0.16447064  0.13095740     0.47500
H1106       H  0.83362055  0.16405679  0.10036494    -0.01600
C1107       C  0.81718747  0.13510024  0.18599686    -0.15300
C1108       C  0.81726302  0.18034592  0.18463574    -0.15000
C1109       C  0.86292932  0.17958404  0.18606508    -0.15400
C1110       C  0.81743102  0.13481030  0.14831023    -0.15400
C1111       C  0.81788078  0.18019727  0.14687274    -0.14900
C1112       C  0.86334670  0.17902264  0.14847059    -0.15300
O1113       O  0.97159254  0.21292161  0.29601040    -0.72400
O1114       O  0.53046961  0.24210497  0.03722878    -0.72500
O1115       O  0.97167885  0.21246902  0.03699884    -0.72500
O1116       O  0.53045712  0.24230116  0.29628271    -0.72600
O1117       O  0.52852583  0.28283000  0.29621320    -0.72500
O1118       O  0.97041436  0.25327568  0.03836849    -0.72500
O1119       O  0.52914147  0.28290878  0.03704052    -0.72500
O1120       O  0.96987029  0.25348165  0.29748171    -0.72500
Ni1121     Ni  0.00108274  0.22597327  0.33325620     1.25400
Ni1122     Ni  0.99943219  0.26956199  0.33399076     1.25400
C1123       C  0.96073239  0.22830431  0.28478884     0.89700
C1124       C  0.53988716  0.26765657  0.04888222     0.89700
C1125       C  0.96115504  0.22778692  0.04977681     0.89700
C1126       C  0.53939632  0.26754775  0.28428569     0.89900
O1127       O  0.71700859  0.24807441  0.29635621    -0.72400
O1128       O  0.74486238  0.21662085  0.03660924    -0.72500
O1129       O  0.71712641  0.24765328  0.03722980    -0.72500
O1130       O  0.74456649  0.21685799  0.29579009    -0.72600
O1131       O  0.78701355  0.25702285  0.29481278    -0.72500
O1132       O  0.75973916  0.28750345  0.03807892    -0.72500
O1133       O  0.78767291  0.25636743  0.03569922    -0.72500
O1134       O  0.75936065  0.28828951  0.29712348    -0.72500
Ni1135     Ni  0.72937841  0.23090323  0.33316484     1.25400
Ni1136     Ni  0.77498831  0.27374131  0.33311801     1.25400
C1137       C  0.73348604  0.27349921  0.28490159     0.89700
C1138       C  0.77110398  0.23118211  0.04777331     0.89700
C1139       C  0.73362053  0.27267766  0.04982970     0.89700
C1140       C  0.77035090  0.23165456  0.28319788     0.89900
O1141       O  0.75308716  0.47125364  0.29605116    -0.72400
O1142       O  0.78271346  0.02867806  0.03751521    -0.72500
O1143       O  0.75332558  0.47113335  0.03681583    -0.72500
O1144       O  0.78266615  0.02888517  0.29670882    -0.72600
O1145       O  0.74072967  0.02950715  0.29655731    -0.72500
O1146       O  0.71152840  0.47202635  0.03827809    -0.72500
O1147       O  0.74101117  0.02979446  0.03757943    -0.72500
O1148       O  0.71105975  0.47167592  0.29720324    -0.72500
Ni1149     Ni  0.76941005  0.99995461  0.00007086     1.25400
Ni1150     Ni  0.72456490  0.00078147  0.00076094     1.25400
C1151       C  0.72703162  0.46165890  0.28464854     0.89700
C1152       C  0.76686119  0.03900998  0.04949839     0.89700
C1153       C  0.72755753  0.46175373  0.04942646     0.89700
C1154       C  0.76681581  0.03906128  0.28478845     0.89900
C1155       C  0.80140219  0.06619167  0.10042546     0.25600
C1156       C  0.77877568  0.06243801  0.07666582    -0.22500
C1157       C  0.76835193  0.08208356  0.07801063     0.20500
C1158       C  0.78070368  0.10527070  0.10198416     0.25500
C1159       C  0.80331434  0.10902352  0.12535550    -0.22500
C1160       C  0.81348099  0.08930057  0.12476653     0.20400
F1161       F  0.83577825  0.09301449  0.14676288    -0.12400
F1162       F  0.81190047  0.04759695  0.10004765    -0.14800
F1163       F  0.77069276  0.12425346  0.10222570    -0.14800
F1164       F  0.74700629  0.07958919  0.05506887    -0.12400
C1165       C  0.76158731  0.06804210  0.23410606     0.25600
C1166       C  0.77938292  0.06275818  0.25798167    -0.22500
C1167       C  0.80964797  0.08103857  0.25690968     0.20500
C1168       C  0.82171914  0.10427189  0.23312973     0.25500
C1169       C  0.80399559  0.10947936  0.20945924    -0.22500
C1170       C  0.77387287  0.09114817  0.20982858     0.20400
F1171       F  0.75630192  0.09619445  0.18758235    -0.12400
F1172       F  0.73236030  0.05086993  0.23416204    -0.14800
F1173       F  0.85086867  0.12178624  0.23325651    -0.14800
F1174       F  0.82762369  0.07710657  0.27982203    -0.12400
C1175       C  0.93101423  0.19264884  0.23599567     0.25600
C1176       C  0.93681732  0.21674755  0.25755993    -0.22500
C1177       C  0.91879699  0.22921848  0.25371383     0.20500
C1178       C  0.89498957  0.21719341  0.23009218     0.25500
C1179       C  0.88907719  0.19296773  0.20929736    -0.22500
C1180       C  0.90744243  0.18102453  0.21184804     0.20400
F1181       F  0.90202599  0.15759052  0.19172908    -0.12400
F1182       F  0.94806487  0.18025530  0.23823142    -0.14800
F1183       F  0.87766782  0.22926957  0.22744369    -0.14800
F1184       F  0.92357691  0.25258688  0.27357032    -0.12400
C1185       C  0.90729375  0.22130424  0.12385166     0.25600
C1186       C  0.88988479  0.19167224  0.12592624    -0.22500
C1187       C  0.89660310  0.17396549  0.10444030     0.20500
C1188       C  0.92033050  0.18569028  0.08053051     0.25500
C1189       C  0.93746039  0.21549537  0.07729114    -0.22500
C1190       C  0.93084804  0.23320170  0.09952741     0.20400
F1191       F  0.94695746  0.26199173  0.09757951    -0.12400
F1192       F  0.90073431  0.23869477  0.14425387    -0.14800
F1193       F  0.92574238  0.16776857  0.05956453    -0.14800
F1194       F  0.87994056  0.14523276  0.10640491    -0.12400
C1195       C  0.76488063  0.19884932  0.10077250     0.25600
C1196       C  0.78284483  0.21858714  0.07413490    -0.22500
C1197       C  0.81225128  0.22568296  0.07202846     0.20500
C1198       C  0.82344706  0.21326684  0.09591220     0.25500
C1199       C  0.80564598  0.19378996  0.12270468    -0.22500
C1200       C  0.77622382  0.18657369  0.12492651     0.20400
F1201       F  0.75824759  0.16692831  0.14957410    -0.12400
F1202       F  0.73641733  0.19158746  0.10361081    -0.14800
F1203       F  0.85183953  0.22039264  0.09284819    -0.14800
F1204       F  0.83003053  0.24393493  0.04594441    -0.12400
C1205       C  0.78210831  0.17673496  0.23256024     0.25600
C1206       C  0.80384233  0.19358022  0.20732387    -0.22500
C1207       C  0.81389196  0.22298681  0.20585717     0.20500
C1208       C  0.80269301  0.23552667  0.23014565     0.25500
C1209       C  0.78116201  0.21867880  0.25590552    -0.22500
C1210       C  0.77068728  0.18909274  0.25650174     0.20400
F1211       F  0.75027057  0.17220082  0.28135757    -0.12400
F1212       F  0.77205847  0.14823365  0.23420593    -0.14800
F1213       F  0.81293035  0.26406323  0.22854428    -0.14800
F1214       F  0.83531199  0.23965819  0.18197757    -0.12400
C1215       C  0.59247188  0.27596928  0.12517918     0.25600
C1216       C  0.61137543  0.30549567  0.12433281    -0.22500
C1217       C  0.60647256  0.32230122  0.09914243     0.20500
C1218       C  0.58301639  0.30995574  0.07512803     0.25500
C1219       C  0.56409613  0.28035506  0.07546052    -0.22500
C1220       C  0.56907016  0.26341989  0.10070894     0.20400
F1221       F  0.55124289  0.23482221  0.10188440    -0.12400
F1222       F  0.59719458  0.25921803  0.14883672    -0.14800
F1223       F  0.57945076  0.32698532  0.05066257    -0.14800
F1224       F  0.62443315  0.35087023  0.09788439    -0.12400
C1225       C  0.60896843  0.28446349  0.23470711     0.25600
C1226       C  0.61094262  0.30460659  0.20889035    -0.23900
C1227       C  0.58881236  0.31193044  0.20698672     0.20500
C1228       C  0.56512121  0.29948447  0.23107746     0.25500
C1229       C  0.56326090  0.27947132  0.25722970    -0.22500
C1230       C  0.58524137  0.27182387  0.25852175     0.20400
F1231       F  0.58445620  0.25303541  0.28392681    -0.12400
F1232       F  0.63016920  0.27714072  0.23705691    -0.14800
F1233       F  0.54404805  0.30700930  0.22886676    -0.14800
F1234       F  0.59071132  0.33193108  0.18283887    -0.12400
C1235       C  0.74007552  0.30906483  0.09819114     0.25600
C1236       C  0.72172617  0.28466986  0.07736510    -0.22500
C1237       C  0.69140159  0.27228158  0.08198944     0.20500
C1238       C  0.67977335  0.28455802  0.10569300     0.25500
C1239       C  0.69802732  0.30897360  0.12583649    -0.22500
C1240       C  0.72821928  0.32097427  0.12255485     0.20400
F1241       F  0.74611976  0.34471910  0.14198515    -0.12400
F1242       F  0.76938925  0.32151564  0.09487023    -0.14800
F1243       F  0.65050533  0.27253866  0.10898864    -0.14800
F1244       F  0.67274412  0.24877082  0.06270644    -0.12400
C1245       C  0.68834508  0.28079864  0.20929798     0.25600
C1246       C  0.69872633  0.31029495  0.20943408    -0.22500
C1247       C  0.72121298  0.32773327  0.23336684     0.20500
C1248       C  0.73314724  0.31588178  0.25712022     0.25500
C1249       C  0.72230021  0.28619979  0.25783604    -0.22500
C1250       C  0.69994099  0.26880250  0.23339379     0.20400
F1251       F  0.68925067  0.24016726  0.23279781    -0.12400
F1252       F  0.66614638  0.26347043  0.18690172    -0.14800
F1253       F  0.75453958  0.33340258  0.28040127    -0.14800
F1254       F  0.73150250  0.35628958  0.23391793    -0.12400
C1255       C  0.69356314  0.43356882  0.10094068     0.25600
C1256       C  0.71614694  0.43809788  0.07625160    -0.22500
C1257       C  0.72739552  0.41908918  0.07649243     0.20500
C1258       C  0.71605486  0.39591278  0.10030190     0.25500
C1259       C  0.69352277  0.39133446  0.12470003    -0.22500
C1260       C  0.68239421  0.41036289  0.12508371     0.20400
F1261       F  0.66002007  0.40587628  0.14780129    -0.12400
F1262       F  0.68232271  0.45155364  0.10178077    -0.14800
F1263       F  0.72711388  0.37779798  0.09941087    -0.14800
F1264       F  0.74875224  0.42225071  0.05272243    -0.12400
C1265       C  0.73367701  0.43244160  0.23525129     0.25600
C1266       C  0.71503107  0.43824178  0.25730858    -0.22500
C1267       C  0.68475131  0.42060676  0.25404534     0.20500
C1268       C  0.67352590  0.39723853  0.23019156     0.25500
C1269       C  0.69223500  0.39153861  0.20863564    -0.22500
C1270       C  0.72228822  0.40939537  0.21086447     0.20400
F1271       F  0.74062513  0.40390951  0.19029618    -0.12400
F1272       F  0.76294790  0.44892101  0.23736003    -0.14800
F1273       F  0.64434062  0.38004926  0.22818370    -0.14800
F1274       F  0.66595489  0.42524900  0.27487656    -0.12400
C1275       C  0.66789415  0.33568513  0.46462099     0.47400
H1276       H  0.66815295  0.33542996  0.43401715    -0.01600
C1277       C  0.66743191  0.33603768  0.53620041     0.47500
H1278       H  0.66727833  0.33626585  0.56680356    -0.01600
C1279       C  0.68500465  0.32251152  0.48194305    -0.15300
C1280       C  0.68082407  0.36560899  0.48134457    -0.15000
C1281       C  0.63737459  0.31913316  0.48131299    -0.15400
C1282       C  0.68497423  0.32283482  0.51958204    -0.15400
C1283       C  0.68034894  0.36571984  0.51902265    -0.14900
C1284       C  0.63716121  0.31911983  0.51906566    -0.15300
C1285       C  0.83228605  0.16517302  0.53586305     0.47400
H1286       H  0.83198153  0.16554954  0.56646164    -0.01600
C1287       C  0.83316181  0.16447067  0.46429068     0.47500
H1288       H  0.83362060  0.16405684  0.43369822    -0.01600
C1289       C  0.81718756  0.13510023  0.51933010    -0.15300
C1290       C  0.81726310  0.18034591  0.51796907    -0.15000
C1291       C  0.86292939  0.17958403  0.51939834    -0.15400
C1292       C  0.81743111  0.13481032  0.48164347    -0.15400
C1293       C  0.81788082  0.18019726  0.48020608    -0.14900
C1294       C  0.86334676  0.17902266  0.48180385    -0.15300
O1295       O  0.97159255  0.21292157  0.62934378    -0.72400
O1296       O  0.53046965  0.24210498  0.37056201    -0.72500
O1297       O  0.97167885  0.21246911  0.37033204    -0.72500
O1298       O  0.53045710  0.24230114  0.62961606    -0.72600
O1299       O  0.52852579  0.28282998  0.62954650    -0.72500
O1300       O  0.97041437  0.25327578  0.37170172    -0.72500
O1301       O  0.52914147  0.28290877  0.37037381    -0.72500
O1302       O  0.96987036  0.25348165  0.63081495    -0.72500
Ni1303     Ni  0.00108277  0.22597328  0.66658956     1.25400
Ni1304     Ni  0.99943222  0.26956201  0.66732406     1.25400
C1305       C  0.96073243  0.22830428  0.61812215     0.89700
C1306       C  0.53988717  0.26765657  0.38221548     0.89700
C1307       C  0.96115505  0.22778701  0.38311002     0.89700
C1308       C  0.53939629  0.26754773  0.61761901     0.89900
O1309       O  0.71700861  0.24807441  0.62968952    -0.72400
O1310       O  0.74486233  0.21662083  0.36994265    -0.72500
O1311       O  0.71712638  0.24765330  0.37056310    -0.72500
O1312       O  0.74456657  0.21685804  0.62912340    -0.72600
O1313       O  0.78701362  0.25702291  0.62814611    -0.72500
O1314       O  0.75973915  0.28750344  0.37141226    -0.72500
O1315       O  0.78767288  0.25636738  0.36903260    -0.72500
O1316       O  0.75936065  0.28828953  0.63045680    -0.72500
Ni1317     Ni  0.72937844  0.23090323  0.66649814     1.25400
Ni1318     Ni  0.77498832  0.27374134  0.66645134     1.25400
C1319       C  0.73348604  0.27349921  0.61823491     0.89700
C1320       C  0.77110394  0.23118207  0.38110671     0.89700
C1321       C  0.73362050  0.27267767  0.38316300     0.89700
C1322       C  0.77035100  0.23165461  0.61653121     0.89900
O1323       O  0.75308712  0.47125365  0.62938447    -0.72400
O1324       O  0.78271345  0.02867806  0.37084855    -0.72500
O1325       O  0.75332559  0.47113341  0.37014917    -0.72500
O1326       O  0.78266615  0.02888521  0.63004214    -0.72600
O1327       O  0.74072968  0.02950720  0.62989063    -0.72500
O1328       O  0.71152840  0.47202638  0.37161140    -0.72500
O1329       O  0.74101115  0.02979445  0.37091277    -0.72500
O1330       O  0.71105969  0.47167591  0.63053655    -0.72500
Ni1331     Ni  0.76941004  0.99995463  0.33340417     1.25400
Ni1332     Ni  0.72456487  0.00078145  0.33409429     1.25400
C1333       C  0.72703156  0.46165889  0.61798187     0.89700
C1334       C  0.76686118  0.03900996  0.38283173     0.89700
C1335       C  0.72755753  0.46175378  0.38275980     0.89700
C1336       C  0.76681582  0.03906133  0.61812178     0.89900
C1337       C  0.80140214  0.06619161  0.43375885     0.25600
C1338       C  0.77877568  0.06243799  0.40999915    -0.22500
C1339       C  0.76835202  0.08208361  0.41134386     0.20500
C1340       C  0.78070381  0.10527077  0.43531733     0.25500
C1341       C  0.80331442  0.10902356  0.45868873    -0.22500
C1342       C  0.81348096  0.08930052  0.45809988     0.20400
F1343       F  0.83577813  0.09301437  0.48009636    -0.12400
F1344       F  0.81190032  0.04759681  0.43338116    -0.14800
F1345       F  0.77069296  0.12425360  0.43555876    -0.14800
F1346       F  0.74700642  0.07958926  0.38840205    -0.12400
C1347       C  0.76158735  0.06804216  0.56743936     0.25600
C1348       C  0.77938294  0.06275822  0.59131498    -0.22500
C1349       C  0.80964800  0.08103857  0.59024294     0.20500
C1350       C  0.82171920  0.10427186  0.56646295     0.25500
C1351       C  0.80399567  0.10947934  0.54279247    -0.22500
C1352       C  0.77387293  0.09114821  0.54316185     0.20400
F1353       F  0.75630200  0.09619453  0.52091565    -0.12400
F1354       F  0.73236034  0.05087002  0.56749535    -0.14800
F1355       F  0.85086874  0.12178615  0.56658968    -0.14800
F1356       F  0.82762372  0.07710657  0.61315530    -0.12400
C1357       C  0.93101416  0.19264869  0.56932915     0.25600
C1358       C  0.93681735  0.21674750  0.59089324    -0.22500
C1359       C  0.91879713  0.22921855  0.58704694     0.20500
C1360       C  0.89498974  0.21719349  0.56342525     0.25500
C1361       C  0.88907726  0.19296771  0.54263061    -0.22500
C1362       C  0.90744239  0.18102440  0.54518147     0.20400
F1363       F  0.90202588  0.15759032  0.52506261    -0.12400
F1364       F  0.94806468  0.18025503  0.57156507    -0.14800
F1365       F  0.87766815  0.22926980  0.56077648    -0.14800
F1366       F  0.92357716  0.25258706  0.60690325    -0.12400
C1367       C  0.90729379  0.22130429  0.45718493     0.25600
C1368       C  0.88988484  0.19167229  0.45925950    -0.22500
C1369       C  0.89660312  0.17396555  0.43777348     0.20500
C1370       C  0.92033051  0.18569036  0.41386368     0.25500
C1371       C  0.93746040  0.21549545  0.41062436    -0.22500
C1372       C  0.93084806  0.23320177  0.43286067     0.20400
F1373       F  0.94695749  0.26199180  0.43091282    -0.12400
F1374       F  0.90073435  0.23869480  0.47758717    -0.14800
F1375       F  0.92574236  0.16776867  0.39289763    -0.14800
F1376       F  0.87994056  0.14523282  0.43973803    -0.12400
C1377       C  0.76488058  0.19884915  0.43410577     0.25600
C1378       C  0.78284480  0.21858709  0.40746829    -0.22500
C1379       C  0.81225128  0.22568301  0.40536197     0.20500
C1380       C  0.82344707  0.21326688  0.42924566     0.25500
C1381       C  0.80564598  0.19378991  0.45603805    -0.22500
C1382       C  0.77622378  0.18657352  0.45825976     0.20400
F1383       F  0.75824753  0.16692800  0.48290721    -0.12400
F1384       F  0.73641725  0.19158720  0.43694400    -0.14800
F1385       F  0.85183957  0.22039276  0.42618175    -0.14800
F1386       F  0.83003059  0.24393511  0.37927807    -0.12400
C1387       C  0.78210846  0.17673501  0.56589362     0.25600
C1388       C  0.80384246  0.19358026  0.54065722    -0.22500
C1389       C  0.81389212  0.22298685  0.53919053     0.20500
C1390       C  0.80269313  0.23552671  0.56347898     0.25500
C1391       C  0.78116213  0.21867885  0.58923887    -0.22500
C1392       C  0.77068744  0.18909278  0.58983513     0.20400
F1393       F  0.75027073  0.17220087  0.61469097    -0.12400
F1394       F  0.77205864  0.14823370  0.56753931    -0.14800
F1395       F  0.81293042  0.26406326  0.56187755    -0.14800
F1396       F  0.83531220  0.23965823  0.51531098    -0.12400
C1397       C  0.59247183  0.27596927  0.45851249     0.25600
C1398       C  0.61137542  0.30549565  0.45766609    -0.22500
C1399       C  0.60647260  0.32230120  0.43247563     0.20500
C1400       C  0.58301645  0.30995573  0.40846123     0.25500
C1401       C  0.56409613  0.28035506  0.40879379    -0.22500
C1402       C  0.56907009  0.26341989  0.43404227     0.20400
F1403       F  0.55124276  0.23482222  0.43521780    -0.12400
F1404       F  0.59719451  0.25921801  0.48217005    -0.14800
F1405       F  0.57945089  0.32698529  0.38399565    -0.14800
F1406       F  0.62443329  0.35087020  0.43121746    -0.12400
C1407       C  0.60896840  0.28446345  0.56804036     0.25600
C1408       C  0.61094259  0.30460656  0.54222361    -0.23900
C1409       C  0.58881233  0.31193041  0.54032000     0.20500
C1410       C  0.56512120  0.29948446  0.56441078     0.25500
C1411       C  0.56326089  0.27947131  0.59056302    -0.22500
C1412       C  0.58524135  0.27182385  0.59185503     0.20400
F1413       F  0.58445616  0.25303534  0.61726003    -0.12400
F1414       F  0.63016918  0.27714068  0.57039012    -0.14800
F1415       F  0.54404807  0.30700933  0.56220013    -0.14800
F1416       F  0.59071124  0.33193101  0.51617210    -0.12400
C1417       C  0.74007548  0.30906491  0.43152435     0.25600
C1418       C  0.72172614  0.28466987  0.41069840    -0.22500
C1419       C  0.69140156  0.27228152  0.41532287     0.20500
C1420       C  0.67977332  0.28455793  0.43902647     0.25500
C1421       C  0.69802729  0.30897358  0.45916984    -0.22500
C1422       C  0.72821924  0.32097431  0.45588809     0.20400
F1423       F  0.74611972  0.34471914  0.47531838    -0.12400
F1424       F  0.76938922  0.32151580  0.42820331    -0.14800
F1425       F  0.65050530  0.27253852  0.44232223    -0.14800
F1426       F  0.67274409  0.24877074  0.39603992    -0.12400
C1427       C  0.68834509  0.28079865  0.54263132     0.25600
C1428       C  0.69872633  0.31029496  0.54276742    -0.22500
C1429       C  0.72121298  0.32773327  0.56670018     0.20500
C1430       C  0.73314724  0.31588178  0.59045357     0.25500
C1431       C  0.72230021  0.28619980  0.59116937    -0.22500
C1432       C  0.69994103  0.26880251  0.56672709     0.20400
F1433       F  0.68925077  0.24016727  0.56613104    -0.12400
F1434       F  0.66614639  0.26347042  0.52023508    -0.14800
F1435       F  0.75453958  0.33340258  0.61373463    -0.14800
F1436       F  0.73150252  0.35628958  0.56725127    -0.12400
C1437       C  0.69356319  0.43356890  0.43427409     0.25600
C1438       C  0.71614694  0.43809794  0.40958495    -0.22500
C1439       C  0.72739543  0.41908917  0.40982562     0.20500
C1440       C  0.71605477  0.39591276  0.43363508     0.25500
C1441       C  0.69352278  0.39133449  0.45803335    -0.22500
C1442       C  0.68239428  0.41036297  0.45841712     0.20400
F1443       F  0.66002015  0.40587638  0.48113475    -0.12400
F1444       F  0.68232275  0.45155371  0.43511417    -0.14800
F1445       F  0.72711368  0.37779787  0.43274386    -0.14800
F1446       F  0.74875203  0.42225061  0.38605545    -0.12400
C1447       C  0.73367695  0.43244162  0.56858457     0.25600
C1448       C  0.71503101  0.43824175  0.59064195    -0.22500
C1449       C  0.68475125  0.42060666  0.58737881     0.20500
C1450       C  0.67352584  0.39723843  0.56352503     0.25500
C1451       C  0.69223495  0.39153859  0.54196897    -0.22500
C1452       C  0.72228816  0.40939541  0.54419772     0.20400
F1453       F  0.74062506  0.40390964  0.52362928    -0.12400
F1454       F  0.76294784  0.44892108  0.57069324    -0.14800
F1455       F  0.64434057  0.38004910  0.56151725    -0.14800
F1456       F  0.66595483  0.42524885  0.60821010    -0.12400
C1457       C  0.66789411  0.33568508  0.79795430     0.47400
H1458       H  0.66815289  0.33542990  0.76735046    -0.01600
C1459       C  0.66743190  0.33603766  0.86953372     0.47500
H1460       H  0.66727833  0.33626585  0.90013687    -0.01600
C1461       C  0.68500460  0.32251146  0.81527637    -0.15300
C1462       C  0.68082405  0.36560894  0.81467785    -0.15000
C1463       C  0.63737455  0.31913313  0.81464633    -0.15400
C1464       C  0.68497418  0.32283478  0.85291536    -0.15400
C1465       C  0.68034895  0.36571981  0.85235594    -0.14900
C1466       C  0.63716119  0.31911982  0.85239901    -0.15300
C1467       C  0.83228604  0.16517300  0.86919641     0.47400
H1468       H  0.83198150  0.16554952  0.89979500    -0.01600
C1469       C  0.83316181  0.16447065  0.79762404     0.47500
H1470       H  0.83362059  0.16405682  0.76703158    -0.01600
C1471       C  0.81718754  0.13510021  0.85266346    -0.15300
C1472       C  0.81726309  0.18034590  0.85130243    -0.15000
C1473       C  0.86292938  0.17958399  0.85273171    -0.15400
C1474       C  0.81743108  0.13481030  0.81497683    -0.15400
C1475       C  0.81788082  0.18019727  0.81353943    -0.14900
C1476       C  0.86334677  0.17902262  0.81513721    -0.15300
O1477       O  0.97159254  0.21292151  0.96267720    -0.72400
O1478       O  0.53046963  0.24210499  0.70389535    -0.72500
O1479       O  0.97167890  0.21246916  0.70366541    -0.72500
O1480       O  0.53045715  0.24230120  0.96294948    -0.72600
O1481       O  0.52852582  0.28283002  0.96287990    -0.72500
O1482       O  0.97041436  0.25327579  0.70503499    -0.72500
O1483       O  0.52914147  0.28290879  0.70370711    -0.72500
O1484       O  0.96987030  0.25348157  0.96414845    -0.72500
Ni1485     Ni  0.00108275  0.22597319  0.99992299     1.25400
Ni1486     Ni  0.99943220  0.26956191  0.00065753     1.25400
C1487       C  0.96073238  0.22830421  0.95145563     0.89700
C1488       C  0.53988716  0.26765659  0.71554879     0.89700
C1489       C  0.96115507  0.22778704  0.71644335     0.89700
C1490       C  0.53939634  0.26754778  0.95095242     0.89900
O1491       O  0.71700860  0.24807446  0.96302291    -0.72400
O1492       O  0.74486238  0.21662086  0.70327596    -0.72500
O1493       O  0.71712636  0.24765326  0.70389641    -0.72500
O1494       O  0.74456656  0.21685810  0.96245667    -0.72600
O1495       O  0.78701363  0.25702295  0.96147942    -0.72500
O1496       O  0.75973911  0.28750343  0.70474559    -0.72500
O1497       O  0.78767290  0.25636743  0.70236593    -0.72500
O1498       O  0.75936065  0.28828957  0.96379015    -0.72500
Ni1499     Ni  0.72937846  0.23090327  0.99983148     1.25400
Ni1500     Ni  0.77498833  0.27374136  0.99978466     1.25400
C1501       C  0.73348603  0.27349926  0.95156829     0.89700
C1502       C  0.77110398  0.23118212  0.71444003     0.89700
C1503       C  0.73362046  0.27267763  0.71649634     0.89700
C1504       C  0.77035099  0.23165467  0.94986449     0.89900
O1505       O  0.75308711  0.47125356  0.96271783    -0.72400
O1506       O  0.78271348  0.02867809  0.70418182    -0.72500
O1507       O  0.75332550  0.47113341  0.70348251    -0.72500
O1508       O  0.78266619  0.02888514  0.96337548    -0.72600
O1509       O  0.74072974  0.02950718  0.96322397    -0.72500
O1510       O  0.71152829  0.47202637  0.70494470    -0.72500
O1511       O  0.74101118  0.02979448  0.70424609    -0.72500
O1512       O  0.71105969  0.47167584  0.96386993    -0.72500
Ni1513     Ni  0.76941004  0.99995466  0.66673747     1.25400
Ni1514     Ni  0.72456488  0.00078149  0.66742762     1.25400
C1515       C  0.72703155  0.46165881  0.95131523     0.89700
C1516       C  0.76686121  0.03900999  0.71616503     0.89700
C1517       C  0.72755742  0.46175376  0.71609309     0.89700
C1518       C  0.76681587  0.03906127  0.95145511     0.89900
C1519       C  0.80140222  0.06619167  0.76709207     0.25600
C1520       C  0.77877570  0.06243800  0.74333246    -0.22500
C1521       C  0.76835194  0.08208354  0.74467727     0.20500
C1522       C  0.78070371  0.10527069  0.76865079     0.25500
C1523       C  0.80331440  0.10902353  0.79202209    -0.22500
C1524       C  0.81348104  0.08930057  0.79143313     0.20400
F1525       F  0.83577825  0.09301446  0.81342953    -0.12400
F1526       F  0.81190046  0.04759691  0.76671430    -0.14800
F1527       F  0.77069274  0.12425342  0.76889239    -0.14800
F1528       F  0.74700626  0.07958914  0.72173556    -0.12400
C1529       C  0.76158739  0.06804208  0.90077269     0.25600
C1530       C  0.77938300  0.06275815  0.92464829    -0.22500
C1531       C  0.80964805  0.08103852  0.92357625     0.20500
C1532       C  0.82171923  0.10427184  0.89979629     0.25500
C1533       C  0.80399568  0.10947932  0.87612584    -0.22500
C1534       C  0.77387295  0.09114817  0.87649524     0.20400
F1535       F  0.75630200  0.09619450  0.85424909    -0.12400
F1536       F  0.73236038  0.05086990  0.90082865    -0.14800
F1537       F  0.85086876  0.12178617  0.89992304    -0.14800
F1538       F  0.82762378  0.07710652  0.94648858    -0.12400
C1539       C  0.93101416  0.19264867  0.90266252     0.25600
C1540       C  0.93681728  0.21674741  0.92422674    -0.22500
C1541       C  0.91879698  0.22921838  0.92038055     0.20500
C1542       C  0.89498961  0.21719335  0.89675881     0.25500
C1543       C  0.88907723  0.19296767  0.87596402    -0.22500
C1544       C  0.90744242  0.18102441  0.87851479     0.20400
F1545       F  0.90202601  0.15759043  0.85839578    -0.12400
F1546       F  0.94806472  0.18025506  0.90489838    -0.14800
F1547       F  0.87766794  0.22926958  0.89411014    -0.14800
F1548       F  0.92357690  0.25258679  0.94023701    -0.12400
C1549       C  0.90729379  0.22130426  0.79051830     0.25600
C1550       C  0.88988487  0.19167226  0.79259287    -0.22500
C1551       C  0.89660321  0.17396555  0.77110685     0.20500
C1552       C  0.92033058  0.18569039  0.74719703     0.25500
C1553       C  0.93746043  0.21549548  0.74395770    -0.22500
C1554       C  0.93084806  0.23320177  0.76619403     0.20400
F1555       F  0.94695746  0.26199180  0.76424617    -0.12400
F1556       F  0.90073429  0.23869475  0.81092051    -0.14800
F1557       F  0.92574242  0.16776873  0.72623090    -0.14800
F1558       F  0.87994070  0.14523281  0.77307139    -0.12400
C1559       C  0.76488063  0.19884929  0.76743920     0.25600
C1560       C  0.78284483  0.21858715  0.74080163    -0.22500
C1561       C  0.81225128  0.22568296  0.73869520     0.20500
C1562       C  0.82344707  0.21326683  0.76257892     0.25500
C1563       C  0.80564600  0.19378994  0.78937140    -0.22500
C1564       C  0.77622383  0.18657366  0.79159321     0.20400
F1565       F  0.75824759  0.16692826  0.81624077    -0.12400
F1566       F  0.73641732  0.19158741  0.77027747    -0.14800
F1567       F  0.85183955  0.22039266  0.75951496    -0.14800
F1568       F  0.83003055  0.24393495  0.71261118    -0.12400
C1569       C  0.78210837  0.17673502  0.89922691     0.25600
C1570       C  0.80384245  0.19358025  0.87399058    -0.22500
C1571       C  0.81389218  0.22298686  0.87252395     0.20500
C1572       C  0.80269324  0.23552675  0.89681240     0.25500
C1573       C  0.78116213  0.21867890  0.92257217    -0.22500
C1574       C  0.77068735  0.18909283  0.92316838     0.20400
F1575       F  0.75027060  0.17220093  0.94802418    -0.12400
F1576       F  0.77205846  0.14823369  0.90087257    -0.14800
F1577       F  0.81293065  0.26406333  0.89521106    -0.14800
F1578       F  0.83531234  0.23965823  0.84864448    -0.12400
C1579       C  0.59247179  0.27596926  0.79184583     0.25600
C1580       C  0.61137538  0.30549565  0.79099944    -0.22500
C1581       C  0.60647259  0.32230121  0.76580898     0.20500
C1582       C  0.58301643  0.30995574  0.74179456     0.25500
C1583       C  0.56409610  0.28035507  0.74212712    -0.22500
C1584       C  0.56907005  0.26341990  0.76737561     0.20400
F1585       F  0.55124272  0.23482222  0.76855111    -0.12400
F1586       F  0.59719446  0.25921800  0.81550336    -0.14800
F1587       F  0.57945089  0.32698531  0.71732899    -0.14800
F1588       F  0.62443330  0.35087019  0.76455080    -0.12400
C1589       C  0.60896843  0.28446351  0.90137379     0.25600
C1590       C  0.61094259  0.30460658  0.87555699    -0.23900
C1591       C  0.58881233  0.31193042  0.87365336     0.20500
C1592       C  0.56512119  0.29948445  0.89774413     0.25500
C1593       C  0.56326091  0.27947134  0.92389641    -0.22500
C1594       C  0.58524139  0.27182391  0.92518846     0.20400
F1595       F  0.58445623  0.25303546  0.95059351    -0.12400
F1596       F  0.63016924  0.27714079  0.90372361    -0.14800
F1597       F  0.54404801  0.30700926  0.89553341    -0.14800
F1598       F  0.59071125  0.33193102  0.84950547    -0.12400
C1599       C  0.74007542  0.30906480  0.76485777     0.25600
C1600       C  0.72172609  0.28466979  0.74403177    -0.22500
C1601       C  0.69140151  0.27228142  0.74865625     0.20500
C1602       C  0.67977325  0.28455785  0.77235981     0.25500
C1603       C  0.69802723  0.30897350  0.79250317    -0.22500
C1604       C  0.72821918  0.32097421  0.78922147     0.20400
F1605       F  0.74611965  0.34471904  0.80865177    -0.12400
F1606       F  0.76938916  0.32151565  0.76153682    -0.14800
F1607       F  0.65050523  0.27253843  0.77565557    -0.14800
F1608       F  0.67274404  0.24877057  0.72937339    -0.12400
C1609       C  0.68834508  0.28079864  0.87596465     0.25600
C1610       C  0.69872627  0.31029493  0.87610078    -0.22500
C1611       C  0.72121287  0.32773327  0.90003358     0.20500
C1612       C  0.73314717  0.31588181  0.92378696     0.25500
C1613       C  0.72230018  0.28619983  0.92450276    -0.22500
C1614       C  0.69994102  0.26880252  0.90006045     0.20400
F1615       F  0.68925081  0.24016729  0.89946439    -0.12400
F1616       F  0.66614639  0.26347040  0.85356840    -0.14800
F1617       F  0.75453953  0.33340263  0.94706798    -0.14800
F1618       F  0.73150236  0.35628958  0.90058467    -0.12400
C1619       C  0.69356301  0.43356877  0.76760730     0.25600
C1620       C  0.71614681  0.43809787  0.74291819    -0.22500
C1621       C  0.72739535  0.41908915  0.74315891     0.20500
C1622       C  0.71605472  0.39591273  0.76696836     0.25500
C1623       C  0.69352269  0.39133442  0.79136659    -0.22500
C1624       C  0.68239412  0.41036283  0.79175032     0.20400
F1625       F  0.66001999  0.40587621  0.81446795    -0.12400
F1626       F  0.68232252  0.45155354  0.76844739    -0.14800
F1627       F  0.72711369  0.37779790  0.76607720    -0.14800
F1628       F  0.74875201  0.42225066  0.71938881    -0.12400
C1629       C  0.73367693  0.43244158  0.90191789     0.25600
C1630       C  0.71503099  0.43824169  0.92397529    -0.22500
C1631       C  0.68475123  0.42060660  0.92071213     0.20500
C1632       C  0.67352583  0.39723838  0.89685832     0.25500
C1633       C  0.69223495  0.39153856  0.87530225    -0.22500
C1634       C  0.72228816  0.40939538  0.87753102     0.20400
F1635       F  0.74062507  0.40390964  0.85696258    -0.12400
F1636       F  0.76294782  0.44892107  0.90402653    -0.14800
F1637       F  0.64434057  0.38004902  0.89485058    -0.14800
F1638       F  0.66595480  0.42524877  0.94154343    -0.12400
C1639       C  0.66789410  0.83568508  0.13128765     0.47400
H1640       H  0.66815288  0.83542990  0.10068381    -0.01600
C1641       C  0.66743188  0.83603764  0.20286707     0.47500
H1642       H  0.66727831  0.83626583  0.23347022    -0.01600
C1643       C  0.68500458  0.82251146  0.14860970    -0.15300
C1644       C  0.68082403  0.86560894  0.14801121    -0.15000
C1645       C  0.63737455  0.81913312  0.14797968    -0.15400
C1646       C  0.68497417  0.82283476  0.18624869    -0.15400
C1647       C  0.68034892  0.86571981  0.18568930    -0.14900
C1648       C  0.63716118  0.81911980  0.18573235    -0.15300
C1649       C  0.83228604  0.66517306  0.20252972     0.47400
H1650       H  0.83198153  0.66554959  0.23312831    -0.01600
C1651       C  0.83316178  0.66447067  0.13095735     0.47500
H1652       H  0.83362056  0.66405681  0.10036489    -0.01600
C1653       C  0.81718752  0.63510026  0.18599679    -0.15300
C1654       C  0.81726308  0.68034594  0.18463573    -0.15000
C1655       C  0.86292938  0.67958405  0.18606499    -0.15400
C1656       C  0.81743107  0.63481033  0.14831016    -0.15400
C1657       C  0.81788080  0.68019727  0.14687274    -0.14900
C1658       C  0.86334674  0.67902265  0.14847051    -0.15300
O1659       O  0.97159257  0.71292156  0.29601043    -0.72400
O1660       O  0.53046961  0.74210491  0.03722867    -0.72500
O1661       O  0.97167886  0.71246917  0.03699871    -0.72500
O1662       O  0.53045711  0.74230116  0.29628275    -0.72600
O1663       O  0.52852578  0.78282998  0.29621312    -0.72500
O1664       O  0.97041435  0.75327583  0.03836836    -0.72500
O1665       O  0.52914148  0.78290873  0.03704042    -0.72500
O1666       O  0.96987029  0.75348159  0.29748173    -0.72500
Ni1667     Ni  0.00108273  0.72597324  0.33325629     1.25400
Ni1668     Ni  0.99943219  0.76956196  0.33399081     1.25400
C1669       C  0.96073240  0.72830424  0.28478887     0.89700
C1670       C  0.53988716  0.76765652  0.04888211     0.89700
C1671       C  0.96115505  0.72778706  0.04977668     0.89700
C1672       C  0.53939629  0.76754773  0.28428567     0.89900
O1673       O  0.71700860  0.74807443  0.29635625    -0.72400
O1674       O  0.74486233  0.71662082  0.03660929    -0.72500
O1675       O  0.71712638  0.74765330  0.03722976    -0.72500
O1676       O  0.74456657  0.71685805  0.29579009    -0.72600
O1677       O  0.78701360  0.75702292  0.29481277    -0.72500
O1678       O  0.75973915  0.78750344  0.03807892    -0.72500
O1679       O  0.78767287  0.75636737  0.03569919    -0.72500
O1680       O  0.75936064  0.78828955  0.29712352    -0.72500
Ni1681     Ni  0.72937845  0.73090324  0.33316485     1.25400
Ni1682     Ni  0.77498831  0.77374133  0.33311802     1.25400
C1683       C  0.73348602  0.77349924  0.28490165     0.89700
C1684       C  0.77110395  0.73118206  0.04777330     0.89700
C1685       C  0.73362050  0.77267767  0.04982966     0.89700
C1686       C  0.77035098  0.73165463  0.28319787     0.89900
O1687       O  0.75308712  0.97125360  0.29605118    -0.72400
O1688       O  0.78271350  0.52867803  0.03751521    -0.72500
O1689       O  0.75332553  0.97113340  0.03681589    -0.72500
O1690       O  0.78266623  0.52888521  0.29670882    -0.72600
O1691       O  0.74072975  0.52950720  0.29655732    -0.72500
O1692       O  0.71152833  0.97202637  0.03827804    -0.72500
O1693       O  0.74101123  0.52979445  0.03757941    -0.72500
O1694       O  0.71105970  0.97167586  0.29720324    -0.72500
Ni1695     Ni  0.76941007  0.49995460  0.00007082     1.25400
Ni1696     Ni  0.72456492  0.50078144  0.00076096     1.25400
C1697       C  0.72703157  0.96165884  0.28464857     0.89700
C1698       C  0.76686125  0.53900996  0.04949837     0.89700
C1699       C  0.72755745  0.96175375  0.04942646     0.89700
C1700       C  0.76681589  0.53906132  0.28478845     0.89900
C1701       C  0.80140219  0.56619164  0.10042551     0.25600
C1702       C  0.77877575  0.56243801  0.07666577    -0.22500
C1703       C  0.76835205  0.58208359  0.07801049     0.20500
C1704       C  0.78070378  0.60527074  0.10198400     0.25500
C1705       C  0.80331440  0.60902356  0.12535541    -0.22500
C1706       C  0.81348099  0.58930057  0.12476655     0.20400
F1707       F  0.83577819  0.59301446  0.14676300    -0.12400
F1708       F  0.81190038  0.54759685  0.10004787    -0.14800
F1709       F  0.77069286  0.62425351  0.10222547    -0.14800
F1710       F  0.74700644  0.57958923  0.05506868    -0.12400
C1711       C  0.76158738  0.56804206  0.23410594     0.25600
C1712       C  0.77938299  0.56275820  0.25798163    -0.22500
C1713       C  0.80964804  0.58103864  0.25690968     0.20500
C1714       C  0.82171920  0.60427193  0.23312970     0.25500
C1715       C  0.80399565  0.60947938  0.20945919    -0.22500
C1716       C  0.77387293  0.59114817  0.20982852     0.20400
F1717       F  0.75630197  0.59619445  0.18758229    -0.12400
F1718       F  0.73236039  0.55086978  0.23416178    -0.14800
F1719       F  0.85086873  0.62178629  0.23325647    -0.14800
F1720       F  0.82762376  0.57710669  0.27982209    -0.12400
C1721       C  0.93101414  0.69264868  0.23599581     0.25600
C1722       C  0.93681732  0.71674747  0.25755995    -0.22500
C1723       C  0.91879711  0.72921853  0.25371364     0.20500
C1724       C  0.89498972  0.71719349  0.23009193     0.25500
C1725       C  0.88907725  0.69296774  0.20929725    -0.22500
C1726       C  0.90744241  0.68102444  0.21184805     0.20400
F1727       F  0.90202598  0.65759044  0.19172906    -0.12400
F1728       F  0.94806462  0.68025497  0.23823178    -0.14800
F1729       F  0.87766812  0.72926980  0.22744318    -0.14800
F1730       F  0.92357711  0.75258702  0.27356999    -0.12400
C1731       C  0.90729375  0.72130430  0.12385159     0.25600
C1732       C  0.88988483  0.69167230  0.12592616    -0.22500
C1733       C  0.89660316  0.67396558  0.10444018     0.20500
C1734       C  0.92033056  0.68569041  0.08053040     0.25500
C1735       C  0.93746041  0.71549550  0.07729103    -0.22500
C1736       C  0.93084801  0.73320180  0.09952730     0.20400
F1737       F  0.94695735  0.76199183  0.09757935    -0.12400
F1738       F  0.90073426  0.73869480  0.14425376    -0.14800
F1739       F  0.92574243  0.66776874  0.05956435    -0.14800
F1740       F  0.87994063  0.64523285  0.10640473    -0.12400
C1741       C  0.76488062  0.69884930  0.10077252     0.25600
C1742       C  0.78284480  0.71858709  0.07413488    -0.22500
C1743       C  0.81225124  0.72568287  0.07202841     0.20500
C1744       C  0.82344702  0.71326673  0.09591213     0.25500
C1745       C  0.80564596  0.69378992  0.12270468    -0.22500
C1746       C  0.77622381  0.68657367  0.12492654     0.20400
F1747       F  0.75824758  0.66692833  0.14957417    -0.12400
F1748       F  0.73641735  0.69158754  0.10361094    -0.14800
F1749       F  0.85183949  0.72039252  0.09284813    -0.14800
F1750       F  0.83003052  0.74393486  0.04594440    -0.12400
C1751       C  0.78210839  0.67673502  0.23256024     0.25600
C1752       C  0.80384243  0.69358027  0.20732388    -0.22500
C1753       C  0.81389211  0.72298687  0.20585724     0.20500
C1754       C  0.80269312  0.73552672  0.23014568     0.25500
C1755       C  0.78116210  0.71867887  0.25590553    -0.22500
C1756       C  0.77068737  0.68909280  0.25650176     0.20400
F1757       F  0.75027064  0.67220088  0.28135755    -0.12400
F1758       F  0.77205854  0.64823371  0.23420591    -0.14800
F1759       F  0.81293045  0.76406328  0.22854430    -0.14800
F1760       F  0.83531223  0.73965826  0.18197774    -0.12400
C1761       C  0.59247182  0.77596923  0.12517916     0.25600
C1762       C  0.61137539  0.80549562  0.12433277    -0.22500
C1763       C  0.60647259  0.82230116  0.09914230     0.20500
C1764       C  0.58301645  0.80995568  0.07512786     0.25500
C1765       C  0.56409614  0.78035501  0.07546041    -0.22500
C1766       C  0.56907010  0.76341985  0.10070891     0.20400
F1767       F  0.55124277  0.73482218  0.10188444    -0.12400
F1768       F  0.59719451  0.75921799  0.14883671    -0.14800
F1769       F  0.57945090  0.82698525  0.05066228    -0.14800
F1770       F  0.62443328  0.85087015  0.09788411    -0.12400
C1771       C  0.60896839  0.78446344  0.23470711     0.25600
C1772       C  0.61094257  0.80460653  0.20889032    -0.23900
C1773       C  0.58881229  0.81193034  0.20698663     0.20500
C1774       C  0.56512115  0.79948438  0.23107738     0.25500
C1775       C  0.56326086  0.77947128  0.25722968    -0.22500
C1776       C  0.58524133  0.77182383  0.25852175     0.20400
F1777       F  0.58445615  0.75303537  0.28392683    -0.12400
F1778       F  0.63016918  0.77714070  0.23705696    -0.14800
F1779       F  0.54404797  0.80700919  0.22886665    -0.14800
F1780       F  0.59071119  0.83193089  0.18283867    -0.12400
C1781       C  0.74007544  0.80906493  0.09819096     0.25600
C1782       C  0.72172612  0.78466986  0.07736507    -0.22500
C1783       C  0.69140154  0.77228142  0.08198963     0.20500
C1784       C  0.67977327  0.78455781  0.10569322     0.25500
C1785       C  0.69802723  0.80897352  0.12583649    -0.22500
C1786       C  0.72821917  0.82097432  0.12255468     0.20400
F1787       F  0.74611962  0.84471919  0.14198493    -0.12400
F1788       F  0.76938917  0.82151590  0.09486987    -0.14800
F1789       F  0.65050524  0.77253829  0.10898912    -0.14800
F1790       F  0.67274408  0.74877052  0.06270683    -0.12400
C1791       C  0.68834502  0.78079861  0.20929803     0.25600
C1792       C  0.69872626  0.81029491  0.20943409    -0.22500
C1793       C  0.72121286  0.82773324  0.23336689     0.20500
C1794       C  0.73314712  0.81588178  0.25712033     0.25500
C1795       C  0.72230014  0.78619981  0.25783613    -0.22500
C1796       C  0.69994098  0.76880250  0.23339382     0.20400
F1797       F  0.68925079  0.74016727  0.23279774    -0.12400
F1798       F  0.66614632  0.76347037  0.18690182    -0.14800
F1799       F  0.75453945  0.83340261  0.28040136    -0.14800
F1800       F  0.73150236  0.85628955  0.23391796    -0.12400
C1801       C  0.69356307  0.93356881  0.10094067     0.25600
C1802       C  0.71614685  0.93809789  0.07625158    -0.22500
C1803       C  0.72739540  0.91908917  0.07649232     0.20500
C1804       C  0.71605473  0.89591275  0.10030175     0.25500
C1805       C  0.69352270  0.89133444  0.12469998    -0.22500
C1806       C  0.68239416  0.91036288  0.12508371     0.20400
F1807       F  0.66002004  0.90587629  0.14780133    -0.12400
F1808       F  0.68232262  0.95155362  0.10178077    -0.14800
F1809       F  0.72711368  0.87779789  0.09941056    -0.14800
F1810       F  0.74875208  0.92225069  0.05272225    -0.12400
C1811       C  0.73367695  0.93244156  0.23525127     0.25600
C1812       C  0.71503101  0.93824169  0.25730864    -0.22500
C1813       C  0.68475126  0.92060661  0.25404549     0.20500
C1814       C  0.67352585  0.89723839  0.23019169     0.25500
C1815       C  0.69223495  0.89153855  0.20863562    -0.22500
C1816       C  0.72228816  0.90939536  0.21086439     0.20400
F1817       F  0.74062506  0.90390958  0.19029596    -0.12400
F1818       F  0.76294785  0.94892102  0.23735993    -0.14800
F1819       F  0.64434057  0.88004906  0.22818392    -0.14800
F1820       F  0.66595484  0.92524879  0.27487679    -0.12400
C1821       C  0.66789410  0.83568510  0.46462100     0.47400
H1822       H  0.66815289  0.83542994  0.43401716    -0.01600
C1823       C  0.66743189  0.83603765  0.53620042     0.47500
H1824       H  0.66727833  0.83626584  0.56680356    -0.01600
C1825       C  0.68500462  0.82251150  0.48194303    -0.15300
C1826       C  0.68082403  0.86560896  0.48134457    -0.15000
C1827       C  0.63737455  0.81913313  0.48131303    -0.15400
C1828       C  0.68497422  0.82283481  0.51958203    -0.15400
C1829       C  0.68034892  0.86571982  0.51902265    -0.14900
C1830       C  0.63716118  0.81911980  0.51906570    -0.15300
C1831       C  0.83228602  0.66517307  0.53586309     0.47400
H1832       H  0.83198148  0.66554959  0.56646168    -0.01600
C1833       C  0.83316180  0.66447069  0.46429072     0.47500
H1834       H  0.83362059  0.66405684  0.43369826    -0.01600
C1835       C  0.81718753  0.63510027  0.51933016    -0.15300
C1836       C  0.81726304  0.68034592  0.51796908    -0.15000
C1837       C  0.86292936  0.67958408  0.51939839    -0.15400
C1838       C  0.81743109  0.63481034  0.48164353    -0.15400
C1839       C  0.81788081  0.68019729  0.48020609    -0.14900
C1840       C  0.86334675  0.67902269  0.48180390    -0.15300
O1841       O  0.97159258  0.71292162  0.62934376    -0.72400
O1842       O  0.53046962  0.74210498  0.37056202    -0.72500
O1843       O  0.97167881  0.71246907  0.37033208    -0.72500
O1844       O  0.53045712  0.74230118  0.62961616    -0.72600
O1845       O  0.52852580  0.78283001  0.62954658    -0.72500
O1846       O  0.97041436  0.75327575  0.37170177    -0.72500
O1847       O  0.52914151  0.78290881  0.37037373    -0.72500
O1848       O  0.96987030  0.75348166  0.63081507    -0.72500
Ni1849     Ni  0.00108271  0.72597327  0.66658962     1.25400
Ni1850     Ni  0.99943217  0.76956199  0.66732419     1.25400
C1851       C  0.96073242  0.72830432  0.61812219     0.89700
C1852       C  0.53988718  0.76765659  0.38221544     0.89700
C1853       C  0.96115503  0.72778697  0.38311007     0.89700
C1854       C  0.53939630  0.76754777  0.61761910     0.89900
O1855       O  0.71700860  0.74807443  0.62968958    -0.72400
O1856       O  0.74486239  0.71662085  0.36994262    -0.72500
O1857       O  0.71712640  0.74765328  0.37056315    -0.72500
O1858       O  0.74456652  0.71685802  0.62912340    -0.72600
O1859       O  0.78701358  0.75702288  0.62814608    -0.72500
O1860       O  0.75973915  0.78750343  0.37141230    -0.72500
O1861       O  0.78767291  0.75636741  0.36903258    -0.72500
O1862       O  0.75936066  0.78828953  0.63045683    -0.72500
Ni1863     Ni  0.72937843  0.73090323  0.66649817     1.25400
Ni1864     Ni  0.77498831  0.77374130  0.66645134     1.25400
C1865       C  0.73348604  0.77349923  0.61823497     0.89700
C1866       C  0.77110399  0.73118210  0.38110668     0.89700
C1867       C  0.73362052  0.77267764  0.38316306     0.89700
C1868       C  0.77035093  0.73165459  0.61653118     0.89900
O1869       O  0.75308707  0.97125363  0.62938447    -0.72400
O1870       O  0.78271353  0.52867809  0.37084855    -0.72500
O1871       O  0.75332553  0.97113338  0.37014918    -0.72500
O1872       O  0.78266618  0.52888523  0.63004217    -0.72600
O1873       O  0.74072969  0.52950722  0.62989063    -0.72500
O1874       O  0.71152833  0.97202635  0.37161138    -0.72500
O1875       O  0.74101125  0.52979449  0.37091278    -0.72500
O1876       O  0.71105965  0.97167590  0.63053658    -0.72500
Ni1877     Ni  0.76941010  0.49995466  0.33340417     1.25400
Ni1878     Ni  0.72456495  0.50078149  0.33409430     1.25400
C1879       C  0.72703151  0.96165887  0.61798189     0.89700
C1880       C  0.76686128  0.53901001  0.38283173     0.89700
C1881       C  0.72755746  0.96175373  0.38275977     0.89700
C1882       C  0.76681584  0.53906134  0.61812178     0.89900
C1883       C  0.80140230  0.56619174  0.43375876     0.25600
C1884       C  0.77877577  0.56243805  0.40999913    -0.22500
C1885       C  0.76835200  0.58208358  0.41134394     0.20500
C1886       C  0.78070376  0.60527073  0.43531745     0.25500
C1887       C  0.80331442  0.60902358  0.45868879    -0.22500
C1888       C  0.81348109  0.58930064  0.45809982     0.20400
F1889       F  0.83577833  0.59301457  0.48009621    -0.12400
F1890       F  0.81190060  0.54759703  0.43338097    -0.14800
F1891       F  0.77069282  0.62425349  0.43555899    -0.14800
F1892       F  0.74700630  0.57958916  0.38840225    -0.12400
C1893       C  0.76158737  0.56804213  0.56743933     0.25600
C1894       C  0.77938296  0.56275824  0.59131500    -0.22500
C1895       C  0.80964802  0.58103865  0.59024304     0.20500
C1896       C  0.82171919  0.60427196  0.56646307     0.25500
C1897       C  0.80399565  0.60947940  0.54279255    -0.22500
C1898       C  0.77387293  0.59114823  0.54316188     0.20400
F1899       F  0.75630199  0.59619450  0.52091563    -0.12400
F1900       F  0.73236038  0.55086988  0.56749516    -0.14800
F1901       F  0.85086872  0.62178630  0.56658984    -0.14800
F1902       F  0.82762375  0.57710664  0.61315537    -0.12400
C1903       C  0.93101424  0.69264883  0.56932903     0.25600
C1904       C  0.93681735  0.71674755  0.59089328    -0.22500
C1905       C  0.91879703  0.72921850  0.58704715     0.20500
C1906       C  0.89498965  0.71719346  0.56342544     0.25500
C1907       C  0.88907723  0.69296776  0.54263067    -0.22500
C1908       C  0.90744244  0.68102452  0.54518139     0.20400
F1909       F  0.90202603  0.65759054  0.52506237    -0.12400
F1910       F  0.94806484  0.68025524  0.57156483    -0.14800
F1911       F  0.87766796  0.72926967  0.56077684    -0.14800
F1912       F  0.92357693  0.75258687  0.60690368    -0.12400
C1913       C  0.90729379  0.72130431  0.45718498     0.25600
C1914       C  0.88988483  0.69167231  0.45925956    -0.22500
C1915       C  0.89660315  0.67396556  0.43777362     0.20500
C1916       C  0.92033053  0.68569036  0.41386380     0.25500
C1917       C  0.93746040  0.71549545  0.41062443    -0.22500
C1918       C  0.93084807  0.73320178  0.43286072     0.20400
F1919       F  0.94695751  0.76199181  0.43091285    -0.12400
F1920       F  0.90073435  0.73869484  0.47758718    -0.14800
F1921       F  0.92574237  0.66776866  0.39289775    -0.14800
F1922       F  0.87994063  0.64523283  0.43973823    -0.12400
C1923       C  0.76488063  0.69884926  0.43410581     0.25600
C1924       C  0.78284484  0.71858714  0.40746827    -0.22500
C1925       C  0.81225130  0.72568298  0.40536187     0.20500
C1926       C  0.82344709  0.71326689  0.42924563     0.25500
C1927       C  0.80564600  0.69378996  0.45603806    -0.22500
C1928       C  0.77622382  0.68657363  0.45825982     0.20400
F1929       F  0.75824759  0.66692823  0.48290738    -0.12400
F1930       F  0.73641732  0.69158736  0.43694408    -0.14800
F1931       F  0.85183959  0.72039276  0.42618173    -0.14800
F1932       F  0.83003057  0.74393496  0.37927784    -0.12400
C1933       C  0.78210830  0.67673497  0.56589354     0.25600
C1934       C  0.80384235  0.69358022  0.54065719    -0.22500
C1935       C  0.81389203  0.72298681  0.53919053     0.20500
C1936       C  0.80269306  0.73552668  0.56347897     0.25500
C1937       C  0.78116203  0.71867882  0.58923882    -0.22500
C1938       C  0.77068729  0.68909275  0.58983504     0.20400
F1939       F  0.75027060  0.67220086  0.61469092    -0.12400
F1940       F  0.77205846  0.64823366  0.56753925    -0.14800
F1941       F  0.81293042  0.76406325  0.56187758    -0.14800
F1942       F  0.83531219  0.73965819  0.51531106    -0.12400
C1943       C  0.59247176  0.77596925  0.45851254     0.25600
C1944       C  0.61137537  0.80549563  0.45766613    -0.22500
C1945       C  0.60647260  0.82230119  0.43247565     0.20500
C1946       C  0.58301646  0.80995573  0.40846121     0.25500
C1947       C  0.56409612  0.78035507  0.40879376    -0.22500
C1948       C  0.56907003  0.76341989  0.43404230     0.20400
F1949       F  0.55124265  0.73482222  0.43521783    -0.12400
F1950       F  0.59719438  0.75921798  0.48217013    -0.14800
F1951       F  0.57945093  0.82698531  0.38399563    -0.14800
F1952       F  0.62443331  0.85087017  0.43121746    -0.12400
C1953       C  0.60896839  0.78446347  0.56804048     0.25600
C1954       C  0.61094257  0.80460655  0.54222367    -0.23900
C1955       C  0.58881230  0.81193039  0.54032003     0.20500
C1956       C  0.56512115  0.79948442  0.56441078     0.25500
C1957       C  0.56326087  0.77947132  0.59056309    -0.22500
C1958       C  0.58524135  0.77182389  0.59185516     0.20400
F1959       F  0.58445621  0.75303549  0.61726029    -0.12400
F1960       F  0.63016918  0.77714074  0.57039032    -0.14800
F1961       F  0.54404797  0.80700922  0.56220003    -0.14800
F1962       F  0.59071125  0.83193100  0.51617213    -0.12400
C1963       C  0.74007547  0.80906482  0.43152448     0.25600
C1964       C  0.72172615  0.78466982  0.41069846    -0.22500
C1965       C  0.69140156  0.77228150  0.41532283     0.20500
C1966       C  0.67977330  0.78455795  0.43902635     0.25500
C1967       C  0.69802726  0.80897356  0.45916980    -0.22500
C1968       C  0.72821921  0.82097423  0.45588818     0.20400
F1969       F  0.74611967  0.84471898  0.47531861    -0.12400
F1970       F  0.76938922  0.82151564  0.42820358    -0.14800
F1971       F  0.65050527  0.77253856  0.44232200    -0.14800
F1972       F  0.67274411  0.74877071  0.39603986    -0.12400
C1973       C  0.68834513  0.78079866  0.54263130     0.25600
C1974       C  0.69872633  0.81029496  0.54276743    -0.22500
C1975       C  0.72121289  0.82773327  0.56670031     0.20500
C1976       C  0.73314715  0.81588179  0.59045372     0.25500
C1977       C  0.72230019  0.78619982  0.59116945    -0.22500
C1978       C  0.69994105  0.76880253  0.56672710     0.20400
F1979       F  0.68925083  0.74016730  0.56613102    -0.12400
F1980       F  0.66614644  0.76347043  0.52023505    -0.14800
F1981       F  0.75453940  0.83340257  0.61373489    -0.14800
F1982       F  0.73150235  0.85628957  0.56725150    -0.12400
C1983       C  0.69356307  0.93356881  0.43427397     0.25600
C1984       C  0.71614686  0.93809787  0.40958488    -0.22500
C1985       C  0.72739540  0.91908915  0.40982566     0.20500
C1986       C  0.71605474  0.89591273  0.43363510     0.25500
C1987       C  0.69352271  0.89133445  0.45803332    -0.22500
C1988       C  0.68239419  0.91036290  0.45841704     0.20400
F1989       F  0.66002007  0.90587633  0.48113466    -0.12400
F1990       F  0.68232259  0.95155358  0.43511401    -0.14800
F1991       F  0.72711368  0.87779787  0.43274395    -0.14800
F1992       F  0.74875207  0.92225065  0.38605558    -0.12400
C1993       C  0.73367690  0.93244157  0.56858464     0.25600
C1994       C  0.71503095  0.93824172  0.59064196    -0.22500
C1995       C  0.68475120  0.92060665  0.58737875     0.20500
C1996       C  0.67352580  0.89723843  0.56352494     0.25500
C1997       C  0.69223492  0.89153856  0.54196897    -0.22500
C1998       C  0.72228813  0.90939535  0.54419781     0.20400
F1999       F  0.74062506  0.90390955  0.52362945    -0.12400
F2000       F  0.76294779  0.94892105  0.57069331    -0.14800
F2001       F  0.64434052  0.88004913  0.56151706    -0.14800
F2002       F  0.66595476  0.92524885  0.60820999    -0.12400
C2003       C  0.66789410  0.83568512  0.79795432     0.47400
H2004       H  0.66815287  0.83542996  0.76735049    -0.01600
C2005       C  0.66743191  0.83603765  0.86953375     0.47500
H2006       H  0.66727835  0.83626581  0.90013690    -0.01600
C2007       C  0.68500461  0.82251150  0.81527633    -0.15300
C2008       C  0.68082404  0.86560897  0.81467791    -0.15000
C2009       C  0.63737455  0.81913314  0.81464638    -0.15400
C2010       C  0.68497422  0.82283480  0.85291533    -0.15400
C2011       C  0.68034894  0.86571981  0.85235600    -0.14900
C2012       C  0.63716120  0.81911981  0.85239904    -0.15300
C2013       C  0.83228596  0.66517302  0.86919643     0.47400
H2014       H  0.83198142  0.66554954  0.89979502    -0.01600
C2015       C  0.83316175  0.66447063  0.79762406     0.47500
H2016       H  0.83362055  0.66405678  0.76703160    -0.01600
C2017       C  0.81718746  0.63510022  0.85266350    -0.15300
C2018       C  0.81726301  0.68034589  0.85130241    -0.15000
C2019       C  0.86292930  0.67958404  0.85273174    -0.15400
C2020       C  0.81743102  0.63481029  0.81497687    -0.15400
C2021       C  0.81788077  0.68019724  0.81353942    -0.14900
C2022       C  0.86334669  0.67902262  0.81513726    -0.15300
O2023       O  0.97159254  0.71292162  0.96267707    -0.72400
O2024       O  0.53046957  0.74210495  0.70389545    -0.72500
O2025       O  0.97167878  0.71246908  0.70366542    -0.72500
O2026       O  0.53045708  0.74230110  0.96294937    -0.72600
O2027       O  0.52852576  0.78282993  0.96287980    -0.72500
O2028       O  0.97041431  0.75327574  0.70503513    -0.72500
O2029       O  0.52914144  0.78290877  0.70370720    -0.72500
O2030       O  0.96987029  0.75348167  0.96414834    -0.72500
Ni2031     Ni  0.00108274  0.72597330  0.99992287     1.25400
Ni2032     Ni  0.99943219  0.76956202  0.00065741     1.25400
C2033       C  0.96073239  0.72830431  0.95145550     0.89700
C2034       C  0.53988711  0.76765655  0.71554890     0.89700
C2035       C  0.96115498  0.72778697  0.71644342     0.89700
C2036       C  0.53939627  0.76754768  0.95095232     0.89900
O2037       O  0.71700857  0.74807438  0.96302285    -0.72400
O2038       O  0.74486234  0.71662081  0.70327595    -0.72500
O2039       O  0.71712640  0.74765328  0.70389647    -0.72500
O2040       O  0.74456647  0.71685796  0.96245676    -0.72600
O2041       O  0.78701351  0.75702284  0.96147939    -0.72500
O2042       O  0.75973917  0.78750342  0.70474562    -0.72500
O2043       O  0.78767288  0.75636736  0.70236590    -0.72500
O2044       O  0.75936061  0.78828950  0.96379013    -0.72500
Ni2045     Ni  0.72937840  0.73090322  0.99983149     1.25400
Ni2046     Ni  0.77498828  0.77374129  0.99978464     1.25400
C2047       C  0.73348601  0.77349918  0.95156823     0.89700
C2048       C  0.77110395  0.73118204  0.71444000     0.89700
C2049       C  0.73362052  0.77267765  0.71649636     0.89700
C2050       C  0.77035087  0.73165454  0.94986451     0.89900
O2051       O  0.75308711  0.97125356  0.96271787    -0.72400
O2052       O  0.78271344  0.52867809  0.70418187    -0.72500
O2053       O  0.75332555  0.97113341  0.70348249    -0.72500
O2054       O  0.78266618  0.52888515  0.96337547    -0.72600
O2055       O  0.74072970  0.52950712  0.96322395    -0.72500
O2056       O  0.71152835  0.97202637  0.70494472    -0.72500
O2057       O  0.74101114  0.52979447  0.70424610    -0.72500
O2058       O  0.71105972  0.97167589  0.96386988    -0.72500
Ni2059     Ni  0.76941004  0.49995467  0.66673749     1.25400
Ni2060     Ni  0.72456487  0.50078150  0.66742760     1.25400
C2061       C  0.72703157  0.96165884  0.95131523     0.89700
C2062       C  0.76686116  0.53900998  0.71616506     0.89700
C2063       C  0.72755749  0.96175377  0.71609311     0.89700
C2064       C  0.76681584  0.53906124  0.95145509     0.89900
C2065       C  0.80140209  0.56619159  0.76709221     0.25600
C2066       C  0.77877564  0.56243798  0.74333251    -0.22500
C2067       C  0.76835192  0.58208355  0.74467726     0.20500
C2068       C  0.78070372  0.60527072  0.76865072     0.25500
C2069       C  0.80331434  0.60902352  0.79202212    -0.22500
C2070       C  0.81348091  0.58930050  0.79143325     0.20400
F2071       F  0.83577809  0.59301436  0.81342972    -0.12400
F2072       F  0.81190024  0.54759676  0.76671455    -0.14800
F2073       F  0.77069288  0.62425355  0.76889214    -0.14800
F2074       F  0.74700628  0.57958917  0.72173550    -0.12400
C2075       C  0.76158731  0.56804208  0.90077273     0.25600
C2076       C  0.77938294  0.56275813  0.92464827    -0.22500
C2077       C  0.80964799  0.58103849  0.92357620     0.20500
C2078       C  0.82171915  0.60427184  0.89979630     0.25500
C2079       C  0.80399559  0.60947933  0.87612588    -0.22500
C2080       C  0.77387286  0.59114820  0.87649531     0.20400
F2081       F  0.75630189  0.59619457  0.85424924    -0.12400
F2082       F  0.73236030  0.55086991  0.90082871    -0.14800
F2083       F  0.85086867  0.62178619  0.89992306    -0.14800
F2084       F  0.82762375  0.57710644  0.94648844    -0.12400
C2085       C  0.93101410  0.69264873  0.90266249     0.25600
C2086       C  0.93681729  0.71674753  0.92422661    -0.22500
C2087       C  0.91879704  0.72921855  0.92038037     0.20500
C2088       C  0.89498964  0.71719350  0.89675871     0.25500
C2089       C  0.88907717  0.69296774  0.87596402    -0.22500
C2090       C  0.90744231  0.68102444  0.87851484     0.20400
F2091       F  0.90202581  0.65759038  0.85839594    -0.12400
F2092       F  0.94806461  0.68025506  0.90489840    -0.14800
F2093       F  0.87766799  0.72926977  0.89411005    -0.14800
F2094       F  0.92357707  0.75258704  0.94023673    -0.12400
C2095       C  0.90729368  0.72130424  0.79051831     0.25600
C2096       C  0.88988478  0.69167224  0.79259293    -0.22500
C2097       C  0.89660313  0.67396551  0.77110701     0.20500
C2098       C  0.92033052  0.68569032  0.74719722     0.25500
C2099       C  0.93746035  0.71549541  0.74395779    -0.22500
C2100       C  0.93084796  0.73320172  0.76619405     0.20400
F2101       F  0.94695733  0.76199175  0.76424613    -0.12400
F2102       F  0.90073417  0.73869475  0.81092045    -0.14800
F2103       F  0.92574240  0.66776863  0.72623122    -0.14800
F2104       F  0.87994060  0.64523278  0.77307161    -0.12400
C2105       C  0.76488058  0.69884916  0.76743910     0.25600
C2106       C  0.78284479  0.71858706  0.74080157    -0.22500
C2107       C  0.81225127  0.72568296  0.73869523     0.20500
C2108       C  0.82344706  0.71326686  0.76257898     0.25500
C2109       C  0.80564596  0.69378990  0.78937137    -0.22500
C2110       C  0.77622377  0.68657353  0.79159310     0.20400
F2111       F  0.75824752  0.66692804  0.81624057    -0.12400
F2112       F  0.73641726  0.69158723  0.77027735    -0.14800
F2113       F  0.85183956  0.72039276  0.75951510    -0.14800
F2114       F  0.83003058  0.74393504  0.71261130    -0.12400
C2115       C  0.78210830  0.67673494  0.89922689     0.25600
C2116       C  0.80384233  0.69358020  0.87399053    -0.22500
C2117       C  0.81389198  0.72298679  0.87252386     0.20500
C2118       C  0.80269301  0.73552664  0.89681232     0.25500
C2119       C  0.78116198  0.71867877  0.92257216    -0.22500
C2120       C  0.77068726  0.68909271  0.92316840     0.20400
F2121       F  0.75027055  0.67220079  0.94802422    -0.12400
F2122       F  0.77205847  0.64823364  0.90087258    -0.14800
F2123       F  0.81293036  0.76406320  0.89521097    -0.14800
F2124       F  0.83531207  0.73965818  0.84864432    -0.12400
C2125       C  0.59247182  0.77596923  0.79184585     0.25600
C2126       C  0.61137536  0.80549563  0.79099950    -0.22500
C2127       C  0.60647249  0.82230119  0.76580913     0.20500
C2128       C  0.58301635  0.80995571  0.74179470     0.25500
C2129       C  0.56409608  0.78035503  0.74212720    -0.22500
C2130       C  0.56907008  0.76341986  0.76737562     0.20400
F2131       F  0.55124278  0.73482218  0.76855109    -0.12400
F2132       F  0.59719452  0.75921797  0.81550335    -0.14800
F2133       F  0.57945074  0.82698529  0.71732921    -0.14800
F2134       F  0.62443312  0.85087019  0.76455105    -0.12400
C2135       C  0.60896837  0.78446340  0.90137370     0.25600
C2136       C  0.61094260  0.80460656  0.87555702    -0.23900
C2137       C  0.58881235  0.81193042  0.87365341     0.20500
C2138       C  0.56512119  0.79948443  0.89774412     0.25500
C2139       C  0.56326086  0.77947125  0.92389633    -0.22500
C2140       C  0.58524129  0.77182376  0.92518832     0.20400
F2141       F  0.58445606  0.75303521  0.95059328    -0.12400
F2142       F  0.63016911  0.77714058  0.90372343    -0.14800
F2143       F  0.54404804  0.80700928  0.89553342    -0.14800
F2144       F  0.59071130  0.83193104  0.84950553    -0.12400
C2145       C  0.74007547  0.80906484  0.76485777     0.25600
C2146       C  0.72172615  0.78466985  0.74403173    -0.22500
C2147       C  0.69140156  0.77228154  0.74865608     0.20500
C2148       C  0.67977329  0.78455796  0.77235962     0.25500
C2149       C  0.69802725  0.80897357  0.79250308    -0.22500
C2150       C  0.72821921  0.82097425  0.78922146     0.20400
F2151       F  0.74611967  0.84471905  0.80865180    -0.12400
F2152       F  0.76938922  0.82151567  0.76153686    -0.14800
F2153       F  0.65050526  0.77253857  0.77565527    -0.14800
F2154       F  0.67274411  0.74877076  0.72937309    -0.12400
C2155       C  0.68834502  0.78079862  0.87596464     0.25600
C2156       C  0.69872631  0.81029493  0.87610069    -0.22500
C2157       C  0.72121297  0.82773325  0.90003344     0.20500
C2158       C  0.73314721  0.81588175  0.92378683     0.25500
C2159       C  0.72230016  0.78619976  0.92450267    -0.22500
C2160       C  0.69994095  0.76880247  0.90006042     0.20400
F2161       F  0.68925062  0.74016723  0.89946442    -0.12400
F2162       F  0.66614629  0.76347041  0.85356842    -0.14800
F2163       F  0.75453956  0.83340255  0.94706787    -0.14800
F2164       F  0.73150251  0.85628957  0.90058455    -0.12400
C2165       C  0.69356322  0.93356893  0.76760745     0.25600
C2166       C  0.71614693  0.93809793  0.74291826    -0.22500
C2167       C  0.72739541  0.91908917  0.74315896     0.20500
C2168       C  0.71605474  0.89591274  0.76696840     0.25500
C2169       C  0.69352276  0.89133449  0.79136669    -0.22500
C2170       C  0.68239431  0.91036301  0.79175050     0.20400
F2171       F  0.66002024  0.90587646  0.81446816    -0.12400
F2172       F  0.68232279  0.95155375  0.76844755    -0.14800
F2173       F  0.72711361  0.87779783  0.76607717    -0.14800
F2174       F  0.74875203  0.92225062  0.71938881    -0.12400
C2175       C  0.73367696  0.93244156  0.90191794     0.25600
C2176       C  0.71503102  0.93824171  0.92397528    -0.22500
C2177       C  0.68475126  0.92060665  0.92071211     0.20500
C2178       C  0.67352586  0.89723841  0.89685834     0.25500
C2179       C  0.69223496  0.89153855  0.87530233    -0.22500
C2180       C  0.72228818  0.90939534  0.87753111     0.20400
F2181       F  0.74062507  0.90390949  0.85696277    -0.12400
F2182       F  0.76294786  0.94892100  0.90402663    -0.14800
F2183       F  0.64434059  0.88004905  0.89485061    -0.14800
F2184       F  0.66595484  0.92524886  0.94154337    -0.12400
loop_ 
_geom_bond_atom_site_label_1 
_geom_bond_atom_site_label_2 
_geom_bond_distance 
_geom_bond_site_symmetry_2 
_ccdc_geom_bond_type 
C1            H2   1.112       .  S
C1            C7   1.533       .  S
C1            C6   1.532       .  S
C1            C5   1.532       .  S
C3            H4   1.112       .  S
C3            C9   1.533       .  S
C3            C8   1.532       .  S
C3           C10   1.535       .  S
C5            C8   1.367       .  D
C5          C147   1.468       .  S
C6            C9   1.369       .  D
C6          C167   1.478       .  S
C7           C10   1.371       .  D
C7          C124   1.478       .  S
C8          C154   1.477       .  S
C9          C177   1.470       .  S
C10         C134   1.473       .  S
C11          H12   1.112       .  S
C11          C17   1.531       .  S
C11          C16   1.536       .  S
C11          C15   1.533       .  S
C13          H14   1.112       .  S
C13          C19   1.532       .  S
C13          C18   1.532       .  S
C13          C20   1.532       .  S
C15          C18   1.369       .  D
C15          C77   1.477       .  S
C16          C19   1.372       .  D
C16         C114   1.469       .  S
C17          C20   1.366       .  D
C17          C87   1.474       .  S
C18          C67   1.470       .  S
C19         C107   1.482       .  S
C20          C94   1.468       .  S
O21         Ni29   1.923       .  S
O21          C31   1.283       .  A
O22       Ni1485   1.923   1_554  S
O22          C32   1.282       .  A
O23        Ni393   1.906   1_554  S
O23          C33   1.279       .  A
O24       Ni1121   1.907       .  S
O24          C34   1.279       .  A
O25       Ni1122   1.914   1_455  S
O25          C34   1.281       .  A
O26        Ni394   1.915       .  S
O26          C33   1.281       .  A
O27       Ni1486   1.908   1_455  S
O27          C32   1.280       .  A
O28         Ni30   1.908       .  S
O28          C31   1.279       .  A
Ni29       O1296   1.923       .  S
Ni29        O205   1.906       .  S
Ni29       O1116   1.907       .  S
Ni29        Ni30   2.387       .  S
Ni30       O1117   1.914       .  S
Ni30        O208   1.915       .  S
Ni30       O1301   1.908       .  S
C31          C84   1.484       .  S
C32         C127   1.479       .  S
C33          C97   1.478       .  S
C34         C137   1.472       .  S
O35         Ni43   1.918       .  S
O35          C45   1.282       .  A
O36        Ni407   1.918   1_554  S
O36          C46   1.281       .  A
O37        Ni407   1.900   1_554  S
O37          C47   1.279       .  A
O38         Ni43   1.901       .  S
O38          C48   1.278       .  A
O39         Ni44   1.916       .  S
O39          C48   1.281       .  A
O40        Ni408   1.918   1_554  S
O40          C47   1.282       .  A
O41        Ni408   1.913   1_554  S
O41          C46   1.281       .  A
O42         Ni44   1.912       .  S
O42          C45   1.280       .  A
Ni43        O218   1.918       .  S
Ni43        O219   1.900       .  S
Ni43        Ni44   2.387       .  S
Ni44        O222   1.918       .  S
Ni44        O223   1.913       .  S
C45         C157   1.480       .  S
C46         C104   1.478       .  S
C47         C144   1.478       .  S
C48         C117   1.471       .  S
O49        Ni785   1.913       .  S
O49          C59   1.281       .  A
O50         Ni57   1.913   1_545  S
O50          C60   1.280       .  A
O51        Ni603   1.907       .  S
O51          C61   1.280       .  A
O52        Ni239   1.908   1_545  S
O52          C62   1.280       .  A
O53        Ni240   1.924       .  S
O53          C62   1.283       .  A
O54        Ni604   1.924       .  S
O54          C61   1.283       .  A
O55         Ni58   1.909       .  S
O55          C60   1.280       .  A
O56        Ni786   1.911       .  S
O56          C59   1.280       .  A
Ni57        O959   1.913   1_554  S
Ni57        O597   1.907       .  S
Ni57        O416   1.908   1_564  S
Ni57        Ni58   2.386   1_565  S
Ni58        O417   1.924   1_554  S
Ni58        O600   1.924   1_545  S
Ni58        O966   1.911   1_544  S
C59         C174   1.479       .  S
C60          C64   1.476       .  S
C61         C164   1.481       .  S
C62          C74   1.482       .  S
C63          C64   1.410       .  A
C63          C68   1.398       .  A
C63          F70   1.358       .  S
C64          C65   1.408       .  A
C65          C66   1.393       .  A
C65          F72   1.358       .  S
C66          C67   1.400       .  A
C66          F71   1.358       .  S
C67          C68   1.401       .  A
C68          F69   1.358       .  S
C73          C74   1.410       .  A
C73          C78   1.402       .  A
C73          F80   1.358       .  S
C74          C75   1.410       .  A
C75          C76   1.395       .  A
C75          F82   1.358       .  S
C76          C77   1.400       .  A
C76          F81   1.357       .  S
C77          C78   1.404       .  A
C78          F79   1.358       .  S
C83          C84   1.410       .  A
C83          C88   1.399       .  A
C83          F90   1.357       .  S
C84          C85   1.412       .  A
C85          C86   1.396       .  A
C85          F92   1.358       .  S
C86          C87   1.400       .  A
C86          F91   1.358       .  S
C87          C88   1.402       .  A
C88          F89   1.358       .  S
C93          C94   1.401       .  A
C93          C98   1.397       .  A
C93         F100   1.358       .  S
C94          C95   1.398       .  A
C95          C96   1.393       .  A
C95         F102   1.358       .  S
C96          C97   1.411       .  A
C96         F101   1.358       .  S
C97          C98   1.410       .  A
C98          F99   1.358       .  S
C103        C104   1.408       .  A
C103        C108   1.401       .  A
C103        F110   1.358       .  S
C104        C105   1.407       .  A
C105        C106   1.395       .  A
C105        F112   1.358       .  S
C106        C107   1.403       .  A
C106        F111   1.357       .  S
C107        C108   1.406       .  A
C108        F109   1.357       .  S
C113        C114   1.400       .  A
C113        C118   1.391       .  A
C113        F120   1.358       .  S
C114        C115   1.403       .  A
C115        C116   1.397       .  A
C115        F122   1.358       .  S
C116        C117   1.407       .  A
C116        F121   1.358       .  S
C117        C118   1.407       .  A
C118        F119   1.358       .  S
C123        C124   1.405       .  A
C123        C128   1.402       .  A
C123        F130   1.358       .  S
C124        C125   1.401       .  A
C125        C126   1.393       .  A
C125        F132   1.358       .  S
C126        C127   1.408       .  A
C126        F131   1.358       .  S
C127        C128   1.409       .  A
C128        F129   1.358       .  S
C133        C134   1.402       .  A
C133        C138   1.393       .  A
C133        F140   1.357       .  S
C134        C135   1.403       .  A
C135        C136   1.398       .  A
C135        F142   1.357       .  S
C136        C137   1.407       .  A
C136        F141   1.358       .  S
C137        C138   1.407       .  A
C138        F139   1.358       .  S
C143        C144   1.411       .  A
C143        C148   1.399       .  A
C143        F150   1.358       .  S
C144        C145   1.411       .  A
C145        C146   1.390       .  A
C145        F152   1.358       .  S
C146        C147   1.397       .  A
C146        F151   1.357       .  S
C147        C148   1.401       .  A
C148        F149   1.358       .  S
C153        C154   1.403       .  A
C153        C158   1.398       .  A
C153        F160   1.357       .  S
C154        C155   1.401       .  A
C155        C156   1.397       .  A
C155        F162   1.357       .  S
C156        C157   1.409       .  A
C156        F161   1.358       .  S
C157        C158   1.409       .  A
C158        F159   1.358       .  S
C163        C164   1.410       .  A
C163        C168   1.402       .  A
C163        F170   1.358       .  S
C164        C165   1.409       .  A
C165        C166   1.393       .  A
C165        F172   1.358       .  S
C166        C167   1.400       .  A
C166        F171   1.357       .  S
C167        C168   1.405       .  A
C168        F169   1.357       .  S
C173        C174   1.410       .  A
C173        C178   1.396       .  A
C173        F180   1.358       .  S
C174        C175   1.411       .  A
C175        C176   1.396       .  A
C175        F182   1.358       .  S
C176        C177   1.400       .  A
C176        F181   1.358       .  S
C177        C178   1.400       .  A
C178        F179   1.358       .  S
C183        H184   1.112       .  S
C183        C189   1.533       .  S
C183        C188   1.532       .  S
C183        C187   1.532       .  S
C185        H186   1.112       .  S
C185        C191   1.533       .  S
C185        C190   1.532       .  S
C185        C192   1.535       .  S
C187        C190   1.367       .  D
C187        C329   1.468       .  S
C188        C191   1.369       .  D
C188        C349   1.478       .  S
C189        C192   1.371       .  D
C189        C306   1.478       .  S
C190        C336   1.477       .  S
C191        C359   1.470       .  S
C192        C316   1.473       .  S
C193        H194   1.112       .  S
C193        C199   1.531       .  S
C193        C198   1.536       .  S
C193        C197   1.533       .  S
C195        H196   1.112       .  S
C195        C201   1.532       .  S
C195        C200   1.532       .  S
C195        C202   1.532       .  S
C197        C200   1.369       .  D
C197        C259   1.477       .  S
C198        C201   1.372       .  D
C198        C296   1.469       .  S
C199        C202   1.366       .  D
C199        C269   1.474       .  S
C200        C249   1.470       .  S
C201        C289   1.482       .  S
C202        C276   1.468       .  S
O203       Ni211   1.923       .  S
O203        C213   1.283       .  A
O204      Ni1121   1.923       .  S
O204        C214   1.282       .  A
O205        C215   1.279       .  A
O206      Ni1303   1.907       .  S
O206        C216   1.279       .  A
O207      Ni1304   1.914   1_455  S
O207        C216   1.281       .  A
O208        C215   1.281       .  A
O209      Ni1122   1.908   1_455  S
O209        C214   1.280       .  A
O210       Ni212   1.908       .  S
O210        C213   1.279       .  A
Ni211      O1478   1.923       .  S
Ni211       O387   1.906       .  S
Ni211      O1298   1.907       .  S
Ni211      Ni212   2.387       .  S
Ni212      O1299   1.914       .  S
Ni212       O390   1.915       .  S
Ni212      O1483   1.908       .  S
C213        C266   1.484       .  S
C214        C309   1.479       .  S
C215        C279   1.478       .  S
C216        C319   1.472       .  S
O217       Ni225   1.918       .  S
O217        C227   1.282       .  A
O218        C228   1.281       .  A
O219        C229   1.279       .  A
O220       Ni225   1.901       .  S
O220        C230   1.278       .  A
O221       Ni226   1.916       .  S
O221        C230   1.281       .  A
O222        C229   1.282       .  A
O223        C228   1.281       .  A
O224       Ni226   1.912       .  S
O224        C227   1.280       .  A
Ni225       O400   1.918       .  S
Ni225       O401   1.900       .  S
Ni225      Ni226   2.387       .  S
Ni226       O404   1.918       .  S
Ni226       O405   1.913       .  S
C227        C339   1.480       .  S
C228        C286   1.478       .  S
C229        C326   1.478       .  S
C230        C299   1.471       .  S
O231       Ni967   1.913       .  S
O231        C241   1.281       .  A
O232       Ni239   1.913   1_545  S
O232        C242   1.280       .  A
O233       Ni785   1.907       .  S
O233        C243   1.280       .  A
O234       Ni421   1.908   1_545  S
O234        C244   1.280       .  A
O235       Ni422   1.924       .  S
O235        C244   1.283       .  A
O236       Ni786   1.924       .  S
O236        C243   1.283       .  A
O237       Ni240   1.909       .  S
O237        C242   1.280       .  A
O238       Ni968   1.911       .  S
O238        C241   1.280       .  A
Ni239       O595   1.913       .  S
Ni239       O779   1.907       .  S
Ni239      Ni240   2.386   1_565  S
Ni240       O782   1.924   1_545  S
Ni240       O602   1.911   1_545  S
C241        C356   1.479       .  S
C242        C246   1.476       .  S
C243        C346   1.481       .  S
C244        C256   1.482       .  S
C245        C246   1.410       .  A
C245        C250   1.398       .  A
C245        F252   1.358       .  S
C246        C247   1.408       .  A
C247        C248   1.393       .  A
C247        F254   1.358       .  S
C248        C249   1.400       .  A
C248        F253   1.358       .  S
C249        C250   1.401       .  A
C250        F251   1.358       .  S
C255        C256   1.410       .  A
C255        C260   1.402       .  A
C255        F262   1.358       .  S
C256        C257   1.410       .  A
C257        C258   1.395       .  A
C257        F264   1.358       .  S
C258        C259   1.400       .  A
C258        F263   1.357       .  S
C259        C260   1.404       .  A
C260        F261   1.358       .  S
C265        C266   1.410       .  A
C265        C270   1.399       .  A
C265        F272   1.357       .  S
C266        C267   1.412       .  A
C267        C268   1.396       .  A
C267        F274   1.358       .  S
C268        C269   1.400       .  A
C268        F273   1.358       .  S
C269        C270   1.402       .  A
C270        F271   1.358       .  S
C275        C276   1.401       .  A
C275        C280   1.397       .  A
C275        F282   1.358       .  S
C276        C277   1.398       .  A
C277        C278   1.393       .  A
C277        F284   1.358       .  S
C278        C279   1.411       .  A
C278        F283   1.358       .  S
C279        C280   1.410       .  A
C280        F281   1.358       .  S
C285        C286   1.408       .  A
C285        C290   1.401       .  A
C285        F292   1.358       .  S
C286        C287   1.407       .  A
C287        C288   1.395       .  A
C287        F294   1.358       .  S
C288        C289   1.403       .  A
C288        F293   1.357       .  S
C289        C290   1.406       .  A
C290        F291   1.357       .  S
C295        C296   1.400       .  A
C295        C300   1.391       .  A
C295        F302   1.358       .  S
C296        C297   1.403       .  A
C297        C298   1.397       .  A
C297        F304   1.358       .  S
C298        C299   1.407       .  A
C298        F303   1.358       .  S
C299        C300   1.407       .  A
C300        F301   1.358       .  S
C305        C306   1.405       .  A
C305        C310   1.402       .  A
C305        F312   1.358       .  S
C306        C307   1.401       .  A
C307        C308   1.393       .  A
C307        F314   1.358       .  S
C308        C309   1.408       .  A
C308        F313   1.358       .  S
C309        C310   1.409       .  A
C310        F311   1.358       .  S
C315        C316   1.402       .  A
C315        C320   1.393       .  A
C315        F322   1.357       .  S
C316        C317   1.403       .  A
C317        C318   1.398       .  A
C317        F324   1.357       .  S
C318        C319   1.407       .  A
C318        F323   1.358       .  S
C319        C320   1.407       .  A
C320        F321   1.358       .  S
C325        C326   1.411       .  A
C325        C330   1.399       .  A
C325        F332   1.358       .  S
C326        C327   1.411       .  A
C327        C328   1.390       .  A
C327        F334   1.358       .  S
C328        C329   1.397       .  A
C328        F333   1.357       .  S
C329        C330   1.401       .  A
C330        F331   1.358       .  S
C335        C336   1.403       .  A
C335        C340   1.398       .  A
C335        F342   1.357       .  S
C336        C337   1.401       .  A
C337        C338   1.397       .  A
C337        F344   1.357       .  S
C338        C339   1.409       .  A
C338        F343   1.358       .  S
C339        C340   1.409       .  A
C340        F341   1.358       .  S
C345        C346   1.410       .  A
C345        C350   1.402       .  A
C345        F352   1.358       .  S
C346        C347   1.409       .  A
C347        C348   1.393       .  A
C347        F354   1.358       .  S
C348        C349   1.400       .  A
C348        F353   1.357       .  S
C349        C350   1.405       .  A
C350        F351   1.357       .  S
C355        C356   1.410       .  A
C355        C360   1.396       .  A
C355        F362   1.358       .  S
C356        C357   1.411       .  A
C357        C358   1.396       .  A
C357        F364   1.358       .  S
C358        C359   1.400       .  A
C358        F363   1.358       .  S
C359        C360   1.400       .  A
C360        F361   1.358       .  S
C365        H366   1.112       .  S
C365        C371   1.533       .  S
C365        C370   1.532       .  S
C365        C369   1.532       .  S
C367        H368   1.112       .  S
C367        C373   1.533       .  S
C367        C372   1.532       .  S
C367        C374   1.535       .  S
C369        C372   1.367       .  D
C369        C511   1.468       .  S
C370        C373   1.369       .  D
C370        C531   1.478       .  S
C371        C374   1.371       .  D
C371        C488   1.478       .  S
C372        C518   1.477       .  S
C373        C541   1.470       .  S
C374        C498   1.473       .  S
C375        H376   1.112       .  S
C375        C381   1.531       .  S
C375        C380   1.536       .  S
C375        C379   1.533       .  S
C377        H378   1.112       .  S
C377        C383   1.532       .  S
C377        C382   1.532       .  S
C377        C384   1.532       .  S
C379        C382   1.369       .  D
C379        C441   1.477       .  S
C380        C383   1.372       .  D
C380        C478   1.469       .  S
C381        C384   1.366       .  D
C381        C451   1.474       .  S
C382        C431   1.470       .  S
C383        C471   1.482       .  S
C384        C458   1.468       .  S
O385       Ni393   1.923       .  S
O385        C395   1.283       .  A
O386      Ni1303   1.923       .  S
O386        C396   1.282       .  A
O387        C397   1.279       .  A
O388      Ni1485   1.907       .  S
O388        C398   1.279       .  A
O389      Ni1486   1.914   1_456  S
O389        C398   1.281       .  A
O390        C397   1.281       .  A
O391      Ni1304   1.908   1_455  S
O391        C396   1.280       .  A
O392       Ni394   1.908   1_556  S
O392        C395   1.279       .  A
Ni393      O1114   1.923   1_556  S
Ni393      O1480   1.907       .  S
Ni393      Ni394   2.387   1_556  S
Ni394      O1481   1.914   1_554  S
Ni394      O1119   1.908       .  S
C395        C448   1.484       .  S
C396        C491   1.479       .  S
C397        C461   1.478       .  S
C398        C501   1.472       .  S
O399       Ni407   1.918       .  S
O399        C409   1.282       .  A
O400        C410   1.281       .  A
O401        C411   1.279       .  A
O402       Ni407   1.901       .  S
O402        C412   1.278       .  A
O403       Ni408   1.916       .  S
O403        C412   1.281       .  A
O404        C411   1.282       .  A
O405        C410   1.281       .  A
O406       Ni408   1.912       .  S
O406        C409   1.280       .  A
Ni407      Ni408   2.387       .  S
C409        C521   1.480       .  S
C410        C468   1.478       .  S
C411        C508   1.478       .  S
C412        C481   1.471       .  S
O413       Ni603   1.913   1_556  S
O413        C423   1.281       .  A
O414       Ni421   1.913   1_545  S
O414        C424   1.280       .  A
O415       Ni967   1.907       .  S
O415        C425   1.280       .  A
O416        C426   1.280       .  A
O417        C426   1.283       .  A
O418       Ni968   1.924       .  S
O418        C425   1.283       .  A
O419       Ni422   1.909       .  S
O419        C424   1.280       .  A
O420       Ni604   1.911   1_556  S
O420        C423   1.280       .  A
Ni421       O777   1.913       .  S
Ni421       O961   1.907       .  S
Ni421      Ni422   2.386   1_565  S
Ni422       O964   1.924   1_545  S
Ni422       O784   1.911   1_545  S
C423        C538   1.479       .  S
C424        C428   1.476       .  S
C425        C528   1.481       .  S
C426        C438   1.482       .  S
C427        C428   1.410       .  A
C427        C432   1.398       .  A
C427        F434   1.358       .  S
C428        C429   1.408       .  A
C429        C430   1.393       .  A
C429        F436   1.358       .  S
C430        C431   1.400       .  A
C430        F435   1.358       .  S
C431        C432   1.401       .  A
C432        F433   1.358       .  S
C437        C438   1.410       .  A
C437        C442   1.402       .  A
C437        F444   1.358       .  S
C438        C439   1.410       .  A
C439        C440   1.395       .  A
C439        F446   1.358       .  S
C440        C441   1.400       .  A
C440        F445   1.357       .  S
C441        C442   1.404       .  A
C442        F443   1.358       .  S
C447        C448   1.410       .  A
C447        C452   1.399       .  A
C447        F454   1.357       .  S
C448        C449   1.412       .  A
C449        C450   1.396       .  A
C449        F456   1.358       .  S
C450        C451   1.400       .  A
C450        F455   1.358       .  S
C451        C452   1.402       .  A
C452        F453   1.358       .  S
C457        C458   1.401       .  A
C457        C462   1.397       .  A
C457        F464   1.358       .  S
C458        C459   1.398       .  A
C459        C460   1.393       .  A
C459        F466   1.358       .  S
C460        C461   1.411       .  A
C460        F465   1.358       .  S
C461        C462   1.410       .  A
C462        F463   1.358       .  S
C467        C468   1.408       .  A
C467        C472   1.401       .  A
C467        F474   1.358       .  S
C468        C469   1.407       .  A
C469        C470   1.395       .  A
C469        F476   1.358       .  S
C470        C471   1.403       .  A
C470        F475   1.357       .  S
C471        C472   1.406       .  A
C472        F473   1.357       .  S
C477        C478   1.400       .  A
C477        C482   1.391       .  A
C477        F484   1.358       .  S
C478        C479   1.403       .  A
C479        C480   1.397       .  A
C479        F486   1.358       .  S
C480        C481   1.407       .  A
C480        F485   1.358       .  S
C481        C482   1.407       .  A
C482        F483   1.358       .  S
C487        C488   1.405       .  A
C487        C492   1.402       .  A
C487        F494   1.358       .  S
C488        C489   1.401       .  A
C489        C490   1.393       .  A
C489        F496   1.358       .  S
C490        C491   1.408       .  A
C490        F495   1.358       .  S
C491        C492   1.409       .  A
C492        F493   1.358       .  S
C497        C498   1.402       .  A
C497        C502   1.393       .  A
C497        F504   1.357       .  S
C498        C499   1.403       .  A
C499        C500   1.398       .  A
C499        F506   1.357       .  S
C500        C501   1.407       .  A
C500        F505   1.358       .  S
C501        C502   1.407       .  A
C502        F503   1.358       .  S
C507        C508   1.411       .  A
C507        C512   1.399       .  A
C507        F514   1.358       .  S
C508        C509   1.411       .  A
C509        C510   1.390       .  A
C509        F516   1.358       .  S
C510        C511   1.397       .  A
C510        F515   1.357       .  S
C511        C512   1.401       .  A
C512        F513   1.358       .  S
C517        C518   1.403       .  A
C517        C522   1.398       .  A
C517        F524   1.357       .  S
C518        C519   1.401       .  A
C519        C520   1.397       .  A
C519        F526   1.357       .  S
C520        C521   1.409       .  A
C520        F525   1.358       .  S
C521        C522   1.409       .  A
C522        F523   1.358       .  S
C527        C528   1.410       .  A
C527        C532   1.402       .  A
C527        F534   1.358       .  S
C528        C529   1.409       .  A
C529        C530   1.393       .  A
C529        F536   1.358       .  S
C530        C531   1.400       .  A
C530        F535   1.357       .  S
C531        C532   1.405       .  A
C532        F533   1.357       .  S
C537        C538   1.410       .  A
C537        C542   1.396       .  A
C537        F544   1.358       .  S
C538        C539   1.411       .  A
C539        C540   1.396       .  A
C539        F546   1.358       .  S
C540        C541   1.400       .  A
C540        F545   1.358       .  S
C541        C542   1.400       .  A
C542        F543   1.358       .  S
C547        H548   1.112       .  S
C547        C553   1.533       .  S
C547        C552   1.532       .  S
C547        C551   1.532       .  S
C549        H550   1.112       .  S
C549        C555   1.533       .  S
C549        C554   1.532       .  S
C549        C556   1.535       .  S
C551        C554   1.367       .  D
C551        C693   1.468       .  S
C552        C555   1.369       .  D
C552        C713   1.478       .  S
C553        C556   1.371       .  D
C553        C670   1.478       .  S
C554        C700   1.477       .  S
C555        C723   1.470       .  S
C556        C680   1.473       .  S
C557        H558   1.112       .  S
C557        C563   1.531       .  S
C557        C562   1.536       .  S
C557        C561   1.533       .  S
C559        H560   1.112       .  S
C559        C565   1.532       .  S
C559        C564   1.532       .  S
C559        C566   1.532       .  S
C561        C564   1.369       .  D
C561        C623   1.477       .  S
C562        C565   1.372       .  D
C562        C660   1.469       .  S
C563        C566   1.366       .  D
C563        C633   1.474       .  S
C564        C613   1.470       .  S
C565        C653   1.482       .  S
C566        C640   1.468       .  S
O567       Ni575   1.923       .  S
O567        C577   1.283       .  A
O568      Ni2031   1.923   1_554  S
O568        C578   1.282       .  A
O569       Ni939   1.906   1_554  S
O569        C579   1.279       .  A
O570      Ni1667   1.907       .  S
O570        C580   1.279       .  A
O571      Ni1668   1.914   1_455  S
O571        C580   1.281       .  A
O572       Ni940   1.915       .  S
O572        C579   1.281       .  A
O573      Ni2032   1.908   1_455  S
O573        C578   1.280       .  A
O574       Ni576   1.908       .  S
O574        C577   1.279       .  A
Ni575      O1842   1.923       .  S
Ni575       O751   1.906       .  S
Ni575      O1662   1.907       .  S
Ni575      Ni576   2.387       .  S
Ni576      O1663   1.914       .  S
Ni576       O754   1.915       .  S
Ni576      O1847   1.908       .  S
C577        C630   1.484       .  S
C578        C673   1.479       .  S
C579        C643   1.478       .  S
C580        C683   1.472       .  S
O581       Ni589   1.918       .  S
O581        C591   1.282       .  A
O582       Ni953   1.918   1_554  S
O582        C592   1.281       .  A
O583       Ni953   1.900   1_554  S
O583        C593   1.279       .  A
O584       Ni589   1.901       .  S
O584        C594   1.278       .  A
O585       Ni590   1.916       .  S
O585        C594   1.281       .  A
O586       Ni954   1.918   1_554  S
O586        C593   1.282       .  A
O587       Ni954   1.913   1_554  S
O587        C592   1.281       .  A
O588       Ni590   1.912       .  S
O588        C591   1.280       .  A
Ni589       O764   1.918       .  S
Ni589       O765   1.900       .  S
Ni589      Ni590   2.387       .  S
Ni590       O768   1.918       .  S
Ni590       O769   1.913       .  S
C591        C703   1.480       .  S
C592        C650   1.478       .  S
C593        C690   1.478       .  S
C594        C663   1.471       .  S
O595        C605   1.281       .  A
O596       Ni603   1.913       .  S
O596        C606   1.280       .  A
O597        C607   1.280       .  A
O598       Ni785   1.908       .  S
O598        C608   1.280       .  A
O599       Ni786   1.924       .  S
O599        C608   1.283       .  A
O600        C607   1.283       .  A
O601       Ni604   1.909       .  S
O601        C606   1.280       .  A
O602        C605   1.280       .  A
Ni603       O962   1.908   1_554  S
Ni603      Ni604   2.386       .  S
Ni604       O963   1.924   1_554  S
C605        C720   1.479       .  S
C606        C610   1.476       .  S
C607        C710   1.481       .  S
C608        C620   1.482       .  S
C609        C610   1.410       .  A
C609        C614   1.398       .  A
C609        F616   1.358       .  S
C610        C611   1.408       .  A
C611        C612   1.393       .  A
C611        F618   1.358       .  S
C612        C613   1.400       .  A
C612        F617   1.358       .  S
C613        C614   1.401       .  A
C614        F615   1.358       .  S
C619        C620   1.410       .  A
C619        C624   1.402       .  A
C619        F626   1.358       .  S
C620        C621   1.410       .  A
C621        C622   1.395       .  A
C621        F628   1.358       .  S
C622        C623   1.400       .  A
C622        F627   1.357       .  S
C623        C624   1.404       .  A
C624        F625   1.358       .  S
C629        C630   1.410       .  A
C629        C634   1.399       .  A
C629        F636   1.357       .  S
C630        C631   1.412       .  A
C631        C632   1.396       .  A
C631        F638   1.358       .  S
C632        C633   1.400       .  A
C632        F637   1.358       .  S
C633        C634   1.402       .  A
C634        F635   1.358       .  S
C639        C640   1.401       .  A
C639        C644   1.397       .  A
C639        F646   1.358       .  S
C640        C641   1.398       .  A
C641        C642   1.393       .  A
C641        F648   1.358       .  S
C642        C643   1.411       .  A
C642        F647   1.358       .  S
C643        C644   1.410       .  A
C644        F645   1.358       .  S
C649        C650   1.408       .  A
C649        C654   1.401       .  A
C649        F656   1.358       .  S
C650        C651   1.407       .  A
C651        C652   1.395       .  A
C651        F658   1.358       .  S
C652        C653   1.403       .  A
C652        F657   1.357       .  S
C653        C654   1.406       .  A
C654        F655   1.357       .  S
C659        C660   1.400       .  A
C659        C664   1.391       .  A
C659        F666   1.358       .  S
C660        C661   1.403       .  A
C661        C662   1.397       .  A
C661        F668   1.358       .  S
C662        C663   1.407       .  A
C662        F667   1.358       .  S
C663        C664   1.407       .  A
C664        F665   1.358       .  S
C669        C670   1.405       .  A
C669        C674   1.402       .  A
C669        F676   1.358       .  S
C670        C671   1.401       .  A
C671        C672   1.393       .  A
C671        F678   1.358       .  S
C672        C673   1.408       .  A
C672        F677   1.358       .  S
C673        C674   1.409       .  A
C674        F675   1.358       .  S
C679        C680   1.402       .  A
C679        C684   1.393       .  A
C679        F686   1.357       .  S
C680        C681   1.403       .  A
C681        C682   1.398       .  A
C681        F688   1.357       .  S
C682        C683   1.407       .  A
C682        F687   1.358       .  S
C683        C684   1.407       .  A
C684        F685   1.358       .  S
C689        C690   1.411       .  A
C689        C694   1.399       .  A
C689        F696   1.358       .  S
C690        C691   1.411       .  A
C691        C692   1.390       .  A
C691        F698   1.358       .  S
C692        C693   1.397       .  A
C692        F697   1.357       .  S
C693        C694   1.401       .  A
C694        F695   1.358       .  S
C699        C700   1.403       .  A
C699        C704   1.398       .  A
C699        F706   1.357       .  S
C700        C701   1.401       .  A
C701        C702   1.397       .  A
C701        F708   1.357       .  S
C702        C703   1.409       .  A
C702        F707   1.358       .  S
C703        C704   1.409       .  A
C704        F705   1.358       .  S
C709        C710   1.410       .  A
C709        C714   1.402       .  A
C709        F716   1.358       .  S
C710        C711   1.409       .  A
C711        C712   1.393       .  A
C711        F718   1.358       .  S
C712        C713   1.400       .  A
C712        F717   1.357       .  S
C713        C714   1.405       .  A
C714        F715   1.357       .  S
C719        C720   1.410       .  A
C719        C724   1.396       .  A
C719        F726   1.358       .  S
C720        C721   1.411       .  A
C721        C722   1.396       .  A
C721        F728   1.358       .  S
C722        C723   1.400       .  A
C722        F727   1.358       .  S
C723        C724   1.400       .  A
C724        F725   1.358       .  S
C729        H730   1.112       .  S
C729        C735   1.533       .  S
C729        C734   1.532       .  S
C729        C733   1.532       .  S
C731        H732   1.112       .  S
C731        C737   1.533       .  S
C731        C736   1.532       .  S
C731        C738   1.535       .  S
C733        C736   1.367       .  D
C733        C875   1.468       .  S
C734        C737   1.369       .  D
C734        C895   1.478       .  S
C735        C738   1.371       .  D
C735        C852   1.478       .  S
C736        C882   1.477       .  S
C737        C905   1.470       .  S
C738        C862   1.473       .  S
C739        H740   1.112       .  S
C739        C745   1.531       .  S
C739        C744   1.536       .  S
C739        C743   1.533       .  S
C741        H742   1.112       .  S
C741        C747   1.532       .  S
C741        C746   1.532       .  S
C741        C748   1.532       .  S
C743        C746   1.369       .  D
C743        C805   1.477       .  S
C744        C747   1.372       .  D
C744        C842   1.469       .  S
C745        C748   1.366       .  D
C745        C815   1.474       .  S
C746        C795   1.470       .  S
C747        C835   1.482       .  S
C748        C822   1.468       .  S
O749       Ni757   1.923       .  S
O749        C759   1.283       .  A
O750      Ni1667   1.923       .  S
O750        C760   1.282       .  A
O751        C761   1.279       .  A
O752      Ni1849   1.907       .  S
O752        C762   1.279       .  A
O753      Ni1850   1.914   1_455  S
O753        C762   1.281       .  A
O754        C761   1.281       .  A
O755      Ni1668   1.908   1_455  S
O755        C760   1.280       .  A
O756       Ni758   1.908       .  S
O756        C759   1.279       .  A
Ni757      O2024   1.923       .  S
Ni757       O933   1.906       .  S
Ni757      O1844   1.907       .  S
Ni757      Ni758   2.387       .  S
Ni758      O1845   1.914       .  S
Ni758       O936   1.915       .  S
Ni758      O2029   1.908       .  S
C759        C812   1.484       .  S
C760        C855   1.479       .  S
C761        C825   1.478       .  S
C762        C865   1.472       .  S
O763       Ni771   1.918       .  S
O763        C773   1.282       .  A
O764        C774   1.281       .  A
O765        C775   1.279       .  A
O766       Ni771   1.901       .  S
O766        C776   1.278       .  A
O767       Ni772   1.916       .  S
O767        C776   1.281       .  A
O768        C775   1.282       .  A
O769        C774   1.281       .  A
O770       Ni772   1.912       .  S
O770        C773   1.280       .  A
Ni771       O946   1.918       .  S
Ni771       O947   1.900       .  S
Ni771      Ni772   2.387       .  S
Ni772       O950   1.918       .  S
Ni772       O951   1.913       .  S
C773        C885   1.480       .  S
C774        C832   1.478       .  S
C775        C872   1.478       .  S
C776        C845   1.471       .  S
O777        C787   1.281       .  A
O778       Ni785   1.913       .  S
O778        C788   1.280       .  A
O779        C789   1.280       .  A
O780       Ni967   1.908       .  S
O780        C790   1.280       .  A
O781       Ni968   1.924       .  S
O781        C790   1.283       .  A
O782        C789   1.283       .  A
O783       Ni786   1.909       .  S
O783        C788   1.280       .  A
O784        C787   1.280       .  A
Ni785      Ni786   2.386       .  S
C787        C902   1.479       .  S
C788        C792   1.476       .  S
C789        C892   1.481       .  S
C790        C802   1.482       .  S
C791        C792   1.410       .  A
C791        C796   1.398       .  A
C791        F798   1.358       .  S
C792        C793   1.408       .  A
C793        C794   1.393       .  A
C793        F800   1.358       .  S
C794        C795   1.400       .  A
C794        F799   1.358       .  S
C795        C796   1.401       .  A
C796        F797   1.358       .  S
C801        C802   1.410       .  A
C801        C806   1.402       .  A
C801        F808   1.358       .  S
C802        C803   1.410       .  A
C803        C804   1.395       .  A
C803        F810   1.358       .  S
C804        C805   1.400       .  A
C804        F809   1.357       .  S
C805        C806   1.404       .  A
C806        F807   1.358       .  S
C811        C812   1.410       .  A
C811        C816   1.399       .  A
C811        F818   1.357       .  S
C812        C813   1.412       .  A
C813        C814   1.396       .  A
C813        F820   1.358       .  S
C814        C815   1.400       .  A
C814        F819   1.358       .  S
C815        C816   1.402       .  A
C816        F817   1.358       .  S
C821        C822   1.401       .  A
C821        C826   1.397       .  A
C821        F828   1.358       .  S
C822        C823   1.398       .  A
C823        C824   1.393       .  A
C823        F830   1.358       .  S
C824        C825   1.411       .  A
C824        F829   1.358       .  S
C825        C826   1.410       .  A
C826        F827   1.358       .  S
C831        C832   1.408       .  A
C831        C836   1.401       .  A
C831        F838   1.358       .  S
C832        C833   1.407       .  A
C833        C834   1.395       .  A
C833        F840   1.358       .  S
C834        C835   1.403       .  A
C834        F839   1.357       .  S
C835        C836   1.406       .  A
C836        F837   1.357       .  S
C841        C842   1.400       .  A
C841        C846   1.391       .  A
C841        F848   1.358       .  S
C842        C843   1.403       .  A
C843        C844   1.397       .  A
C843        F850   1.358       .  S
C844        C845   1.407       .  A
C844        F849   1.358       .  S
C845        C846   1.407       .  A
C846        F847   1.358       .  S
C851        C852   1.405       .  A
C851        C856   1.402       .  A
C851        F858   1.358       .  S
C852        C853   1.401       .  A
C853        C854   1.393       .  A
C853        F860   1.358       .  S
C854        C855   1.408       .  A
C854        F859   1.358       .  S
C855        C856   1.409       .  A
C856        F857   1.358       .  S
C861        C862   1.402       .  A
C861        C866   1.393       .  A
C861        F868   1.357       .  S
C862        C863   1.403       .  A
C863        C864   1.398       .  A
C863        F870   1.357       .  S
C864        C865   1.407       .  A
C864        F869   1.358       .  S
C865        C866   1.407       .  A
C866        F867   1.358       .  S
C871        C872   1.411       .  A
C871        C876   1.399       .  A
C871        F878   1.358       .  S
C872        C873   1.411       .  A
C873        C874   1.390       .  A
C873        F880   1.358       .  S
C874        C875   1.397       .  A
C874        F879   1.357       .  S
C875        C876   1.401       .  A
C876        F877   1.358       .  S
C881        C882   1.403       .  A
C881        C886   1.398       .  A
C881        F888   1.357       .  S
C882        C883   1.401       .  A
C883        C884   1.397       .  A
C883        F890   1.357       .  S
C884        C885   1.409       .  A
C884        F889   1.358       .  S
C885        C886   1.409       .  A
C886        F887   1.358       .  S
C891        C892   1.410       .  A
C891        C896   1.402       .  A
C891        F898   1.358       .  S
C892        C893   1.409       .  A
C893        C894   1.393       .  A
C893        F900   1.358       .  S
C894        C895   1.400       .  A
C894        F899   1.357       .  S
C895        C896   1.405       .  A
C896        F897   1.357       .  S
C901        C902   1.410       .  A
C901        C906   1.396       .  A
C901        F908   1.358       .  S
C902        C903   1.411       .  A
C903        C904   1.396       .  A
C903        F910   1.358       .  S
C904        C905   1.400       .  A
C904        F909   1.358       .  S
C905        C906   1.400       .  A
C906        F907   1.358       .  S
C911        H912   1.112       .  S
C911        C917   1.533       .  S
C911        C916   1.532       .  S
C911        C915   1.532       .  S
C913        H914   1.112       .  S
C913        C919   1.533       .  S
C913        C918   1.532       .  S
C913        C920   1.535       .  S
C915        C918   1.367       .  D
C915       C1057   1.468       .  S
C916        C919   1.369       .  D
C916       C1077   1.478       .  S
C917        C920   1.371       .  D
C917       C1034   1.478       .  S
C918       C1064   1.477       .  S
C919       C1087   1.470       .  S
C920       C1044   1.473       .  S
C921        H922   1.112       .  S
C921        C927   1.531       .  S
C921        C926   1.536       .  S
C921        C925   1.533       .  S
C923        H924   1.112       .  S
C923        C929   1.532       .  S
C923        C928   1.532       .  S
C923        C930   1.532       .  S
C925        C928   1.369       .  D
C925        C987   1.477       .  S
C926        C929   1.372       .  D
C926       C1024   1.469       .  S
C927        C930   1.366       .  D
C927        C997   1.474       .  S
C928        C977   1.470       .  S
C929       C1017   1.482       .  S
C930       C1004   1.468       .  S
O931       Ni939   1.923       .  S
O931        C941   1.283       .  A
O932      Ni1849   1.923       .  S
O932        C942   1.282       .  A
O933        C943   1.279       .  A
O934      Ni2031   1.907       .  S
O934        C944   1.279       .  A
O935      Ni2032   1.914   1_456  S
O935        C944   1.281       .  A
O936        C943   1.281       .  A
O937      Ni1850   1.908   1_455  S
O937        C942   1.280       .  A
O938       Ni940   1.908   1_556  S
O938        C941   1.279       .  A
Ni939      O1660   1.923   1_556  S
Ni939      O2026   1.907       .  S
Ni939      Ni940   2.387   1_556  S
Ni940      O2027   1.914   1_554  S
Ni940      O1665   1.908       .  S
C941        C994   1.484       .  S
C942       C1037   1.479       .  S
C943       C1007   1.478       .  S
C944       C1047   1.472       .  S
O945       Ni953   1.918       .  S
O945        C955   1.282       .  A
O946        C956   1.281       .  A
O947        C957   1.279       .  A
O948       Ni953   1.901       .  S
O948        C958   1.278       .  A
O949       Ni954   1.916       .  S
O949        C958   1.281       .  A
O950        C957   1.282       .  A
O951        C956   1.281       .  A
O952       Ni954   1.912       .  S
O952        C955   1.280       .  A
Ni953      Ni954   2.387       .  S
C955       C1067   1.480       .  S
C956       C1014   1.478       .  S
C957       C1054   1.478       .  S
C958       C1027   1.471       .  S
O959        C969   1.281       .  A
O960       Ni967   1.913       .  S
O960        C970   1.280       .  A
O961        C971   1.280       .  A
O962        C972   1.280       .  A
O963        C972   1.283       .  A
O964        C971   1.283       .  A
O965       Ni968   1.909       .  S
O965        C970   1.280       .  A
O966        C969   1.280       .  A
Ni967      Ni968   2.386       .  S
C969       C1084   1.479       .  S
C970        C974   1.476       .  S
C971       C1074   1.481       .  S
C972        C984   1.482       .  S
C973        C974   1.410       .  A
C973        C978   1.398       .  A
C973        F980   1.358       .  S
C974        C975   1.408       .  A
C975        C976   1.393       .  A
C975        F982   1.358       .  S
C976        C977   1.400       .  A
C976        F981   1.358       .  S
C977        C978   1.401       .  A
C978        F979   1.358       .  S
C983        C984   1.410       .  A
C983        C988   1.402       .  A
C983        F990   1.358       .  S
C984        C985   1.410       .  A
C985        C986   1.395       .  A
C985        F992   1.358       .  S
C986        C987   1.400       .  A
C986        F991   1.357       .  S
C987        C988   1.404       .  A
C988        F989   1.358       .  S
C993        C994   1.410       .  A
C993        C998   1.399       .  A
C993       F1000   1.357       .  S
C994        C995   1.412       .  A
C995        C996   1.396       .  A
C995       F1002   1.358       .  S
C996        C997   1.400       .  A
C996       F1001   1.358       .  S
C997        C998   1.402       .  A
C998        F999   1.358       .  S
C1003      C1004   1.401       .  A
C1003      C1008   1.397       .  A
C1003      F1010   1.358       .  S
C1004      C1005   1.398       .  A
C1005      C1006   1.393       .  A
C1005      F1012   1.358       .  S
C1006      C1007   1.411       .  A
C1006      F1011   1.358       .  S
C1007      C1008   1.410       .  A
C1008      F1009   1.358       .  S
C1013      C1014   1.408       .  A
C1013      C1018   1.401       .  A
C1013      F1020   1.358       .  S
C1014      C1015   1.407       .  A
C1015      C1016   1.395       .  A
C1015      F1022   1.358       .  S
C1016      C1017   1.403       .  A
C1016      F1021   1.357       .  S
C1017      C1018   1.406       .  A
C1018      F1019   1.357       .  S
C1023      C1024   1.400       .  A
C1023      C1028   1.391       .  A
C1023      F1030   1.358       .  S
C1024      C1025   1.403       .  A
C1025      C1026   1.397       .  A
C1025      F1032   1.358       .  S
C1026      C1027   1.407       .  A
C1026      F1031   1.358       .  S
C1027      C1028   1.407       .  A
C1028      F1029   1.358       .  S
C1033      C1034   1.405       .  A
C1033      C1038   1.402       .  A
C1033      F1040   1.358       .  S
C1034      C1035   1.401       .  A
C1035      C1036   1.393       .  A
C1035      F1042   1.358       .  S
C1036      C1037   1.408       .  A
C1036      F1041   1.358       .  S
C1037      C1038   1.409       .  A
C1038      F1039   1.358       .  S
C1043      C1044   1.402       .  A
C1043      C1048   1.393       .  A
C1043      F1050   1.357       .  S
C1044      C1045   1.403       .  A
C1045      C1046   1.398       .  A
C1045      F1052   1.357       .  S
C1046      C1047   1.407       .  A
C1046      F1051   1.358       .  S
C1047      C1048   1.407       .  A
C1048      F1049   1.358       .  S
C1053      C1054   1.411       .  A
C1053      C1058   1.399       .  A
C1053      F1060   1.358       .  S
C1054      C1055   1.411       .  A
C1055      C1056   1.390       .  A
C1055      F1062   1.358       .  S
C1056      C1057   1.397       .  A
C1056      F1061   1.357       .  S
C1057      C1058   1.401       .  A
C1058      F1059   1.358       .  S
C1063      C1064   1.403       .  A
C1063      C1068   1.398       .  A
C1063      F1070   1.357       .  S
C1064      C1065   1.401       .  A
C1065      C1066   1.397       .  A
C1065      F1072   1.357       .  S
C1066      C1067   1.409       .  A
C1066      F1071   1.358       .  S
C1067      C1068   1.409       .  A
C1068      F1069   1.358       .  S
C1073      C1074   1.410       .  A
C1073      C1078   1.402       .  A
C1073      F1080   1.358       .  S
C1074      C1075   1.409       .  A
C1075      C1076   1.393       .  A
C1075      F1082   1.358       .  S
C1076      C1077   1.400       .  A
C1076      F1081   1.357       .  S
C1077      C1078   1.405       .  A
C1078      F1079   1.357       .  S
C1083      C1084   1.410       .  A
C1083      C1088   1.396       .  A
C1083      F1090   1.358       .  S
C1084      C1085   1.411       .  A
C1085      C1086   1.396       .  A
C1085      F1092   1.358       .  S
C1086      C1087   1.400       .  A
C1086      F1091   1.358       .  S
C1087      C1088   1.400       .  A
C1088      F1089   1.358       .  S
C1093      H1094   1.112       .  S
C1093      C1099   1.533       .  S
C1093      C1098   1.532       .  S
C1093      C1097   1.532       .  S
C1095      H1096   1.112       .  S
C1095      C1101   1.533       .  S
C1095      C1100   1.532       .  S
C1095      C1102   1.535       .  S
C1097      C1100   1.367       .  D
C1097      C1239   1.468       .  S
C1098      C1101   1.369       .  D
C1098      C1259   1.478       .  S
C1099      C1102   1.371       .  D
C1099      C1216   1.478       .  S
C1100      C1246   1.477       .  S
C1101      C1269   1.470       .  S
C1102      C1226   1.473       .  S
C1103      H1104   1.112       .  S
C1103      C1109   1.531       .  S
C1103      C1108   1.536       .  S
C1103      C1107   1.533       .  S
C1105      H1106   1.112       .  S
C1105      C1111   1.532       .  S
C1105      C1110   1.532       .  S
C1105      C1112   1.532       .  S
C1107      C1110   1.369       .  D
C1107      C1169   1.477       .  S
C1108      C1111   1.372       .  D
C1108      C1206   1.469       .  S
C1109      C1112   1.366       .  D
C1109      C1179   1.474       .  S
C1110      C1159   1.470       .  S
C1111      C1199   1.482       .  S
C1112      C1186   1.468       .  S
O1113     Ni1121   1.923   1_655  S
O1113      C1123   1.283       .  A
O1114      C1124   1.282       .  A
O1115     Ni1485   1.906   1_654  S
O1115      C1125   1.279       .  A
O1116      C1126   1.279       .  A
O1117      C1126   1.281       .  A
O1118     Ni1486   1.915       .  S
O1118      C1125   1.281       .  A
O1119      C1124   1.280       .  A
O1120     Ni1122   1.908       .  S
O1120      C1123   1.279       .  A
Ni1121     O1297   1.906   1_455  S
Ni1121    Ni1122   2.387   1_455  S
Ni1122     O1300   1.915       .  S
C1123      C1176   1.484       .  S
C1124      C1219   1.479       .  S
C1125      C1189   1.478       .  S
C1126      C1229   1.472       .  S
O1127     Ni1135   1.918       .  S
O1127      C1137   1.282       .  A
O1128     Ni1499   1.918   1_554  S
O1128      C1138   1.281       .  A
O1129     Ni1499   1.900   1_554  S
O1129      C1139   1.279       .  A
O1130     Ni1135   1.901       .  S
O1130      C1140   1.278       .  A
O1131     Ni1136   1.916       .  S
O1131      C1140   1.281       .  A
O1132     Ni1500   1.918   1_554  S
O1132      C1139   1.282       .  A
O1133     Ni1500   1.913   1_554  S
O1133      C1138   1.281       .  A
O1134     Ni1136   1.912       .  S
O1134      C1137   1.280       .  A
Ni1135     O1310   1.918       .  S
Ni1135     O1311   1.900       .  S
Ni1135    Ni1136   2.387       .  S
Ni1136     O1314   1.918       .  S
Ni1136     O1315   1.913       .  S
C1137      C1249   1.480       .  S
C1138      C1196   1.478       .  S
C1139      C1236   1.478       .  S
C1140      C1209   1.471       .  S
O1141     Ni1877   1.913       .  S
O1141      C1151   1.281       .  A
O1142     Ni1149   1.913   1_545  S
O1142      C1152   1.280       .  A
O1143     Ni1695   1.907       .  S
O1143      C1153   1.280       .  A
O1144     Ni1331   1.908   1_545  S
O1144      C1154   1.280       .  A
O1145     Ni1332   1.924       .  S
O1145      C1154   1.283       .  A
O1146     Ni1696   1.924       .  S
O1146      C1153   1.283       .  A
O1147     Ni1150   1.909       .  S
O1147      C1152   1.280       .  A
O1148     Ni1878   1.911       .  S
O1148      C1151   1.280       .  A
Ni1149     O2051   1.913   1_554  S
Ni1149     O1689   1.907       .  S
Ni1149     O1508   1.908   1_564  S
Ni1149    Ni1150   2.386   1_565  S
Ni1150     O1509   1.924   1_554  S
Ni1150     O1692   1.924   1_545  S
Ni1150     O2058   1.911   1_544  S
C1151      C1266   1.479       .  S
C1152      C1156   1.476       .  S
C1153      C1256   1.481       .  S
C1154      C1166   1.482       .  S
C1155      C1156   1.410       .  A
C1155      C1160   1.398       .  A
C1155      F1162   1.358       .  S
C1156      C1157   1.408       .  A
C1157      C1158   1.393       .  A
C1157      F1164   1.358       .  S
C1158      C1159   1.400       .  A
C1158      F1163   1.358       .  S
C1159      C1160   1.401       .  A
C1160      F1161   1.358       .  S
C1165      C1166   1.410       .  A
C1165      C1170   1.402       .  A
C1165      F1172   1.358       .  S
C1166      C1167   1.410       .  A
C1167      C1168   1.395       .  A
C1167      F1174   1.358       .  S
C1168      C1169   1.400       .  A
C1168      F1173   1.357       .  S
C1169      C1170   1.404       .  A
C1170      F1171   1.358       .  S
C1175      C1176   1.410       .  A
C1175      C1180   1.399       .  A
C1175      F1182   1.357       .  S
C1176      C1177   1.412       .  A
C1177      C1178   1.396       .  A
C1177      F1184   1.358       .  S
C1178      C1179   1.400       .  A
C1178      F1183   1.358       .  S
C1179      C1180   1.402       .  A
C1180      F1181   1.358       .  S
C1185      C1186   1.401       .  A
C1185      C1190   1.397       .  A
C1185      F1192   1.358       .  S
C1186      C1187   1.398       .  A
C1187      C1188   1.393       .  A
C1187      F1194   1.358       .  S
C1188      C1189   1.411       .  A
C1188      F1193   1.358       .  S
C1189      C1190   1.410       .  A
C1190      F1191   1.358       .  S
C1195      C1196   1.408       .  A
C1195      C1200   1.401       .  A
C1195      F1202   1.358       .  S
C1196      C1197   1.407       .  A
C1197      C1198   1.395       .  A
C1197      F1204   1.358       .  S
C1198      C1199   1.403       .  A
C1198      F1203   1.357       .  S
C1199      C1200   1.406       .  A
C1200      F1201   1.357       .  S
C1205      C1206   1.400       .  A
C1205      C1210   1.391       .  A
C1205      F1212   1.358       .  S
C1206      C1207   1.403       .  A
C1207      C1208   1.397       .  A
C1207      F1214   1.358       .  S
C1208      C1209   1.407       .  A
C1208      F1213   1.358       .  S
C1209      C1210   1.407       .  A
C1210      F1211   1.358       .  S
C1215      C1216   1.405       .  A
C1215      C1220   1.402       .  A
C1215      F1222   1.358       .  S
C1216      C1217   1.401       .  A
C1217      C1218   1.393       .  A
C1217      F1224   1.358       .  S
C1218      C1219   1.408       .  A
C1218      F1223   1.358       .  S
C1219      C1220   1.409       .  A
C1220      F1221   1.358       .  S
C1225      C1226   1.402       .  A
C1225      C1230   1.393       .  A
C1225      F1232   1.357       .  S
C1226      C1227   1.403       .  A
C1227      C1228   1.398       .  A
C1227      F1234   1.357       .  S
C1228      C1229   1.407       .  A
C1228      F1233   1.358       .  S
C1229      C1230   1.407       .  A
C1230      F1231   1.358       .  S
C1235      C1236   1.411       .  A
C1235      C1240   1.399       .  A
C1235      F1242   1.358       .  S
C1236      C1237   1.411       .  A
C1237      C1238   1.390       .  A
C1237      F1244   1.358       .  S
C1238      C1239   1.397       .  A
C1238      F1243   1.357       .  S
C1239      C1240   1.401       .  A
C1240      F1241   1.358       .  S
C1245      C1246   1.403       .  A
C1245      C1250   1.398       .  A
C1245      F1252   1.357       .  S
C1246      C1247   1.401       .  A
C1247      C1248   1.397       .  A
C1247      F1254   1.357       .  S
C1248      C1249   1.409       .  A
C1248      F1253   1.358       .  S
C1249      C1250   1.409       .  A
C1250      F1251   1.358       .  S
C1255      C1256   1.410       .  A
C1255      C1260   1.402       .  A
C1255      F1262   1.358       .  S
C1256      C1257   1.409       .  A
C1257      C1258   1.393       .  A
C1257      F1264   1.358       .  S
C1258      C1259   1.400       .  A
C1258      F1263   1.357       .  S
C1259      C1260   1.405       .  A
C1260      F1261   1.357       .  S
C1265      C1266   1.410       .  A
C1265      C1270   1.396       .  A
C1265      F1272   1.358       .  S
C1266      C1267   1.411       .  A
C1267      C1268   1.396       .  A
C1267      F1274   1.358       .  S
C1268      C1269   1.400       .  A
C1268      F1273   1.358       .  S
C1269      C1270   1.400       .  A
C1270      F1271   1.358       .  S
C1275      H1276   1.112       .  S
C1275      C1281   1.533       .  S
C1275      C1280   1.532       .  S
C1275      C1279   1.532       .  S
C1277      H1278   1.112       .  S
C1277      C1283   1.533       .  S
C1277      C1282   1.532       .  S
C1277      C1284   1.535       .  S
C1279      C1282   1.367       .  D
C1279      C1421   1.468       .  S
C1280      C1283   1.369       .  D
C1280      C1441   1.478       .  S
C1281      C1284   1.371       .  D
C1281      C1398   1.478       .  S
C1282      C1428   1.477       .  S
C1283      C1451   1.470       .  S
C1284      C1408   1.473       .  S
C1285      H1286   1.112       .  S
C1285      C1291   1.531       .  S
C1285      C1290   1.536       .  S
C1285      C1289   1.533       .  S
C1287      H1288   1.112       .  S
C1287      C1293   1.532       .  S
C1287      C1292   1.532       .  S
C1287      C1294   1.532       .  S
C1289      C1292   1.369       .  D
C1289      C1351   1.477       .  S
C1290      C1293   1.372       .  D
C1290      C1388   1.469       .  S
C1291      C1294   1.366       .  D
C1291      C1361   1.474       .  S
C1292      C1341   1.470       .  S
C1293      C1381   1.482       .  S
C1294      C1368   1.468       .  S
O1295     Ni1303   1.923   1_655  S
O1295      C1305   1.283       .  A
O1296      C1306   1.282       .  A
O1297      C1307   1.279       .  A
O1298      C1308   1.279       .  A
O1299      C1308   1.281       .  A
O1300      C1307   1.281       .  A
O1301      C1306   1.280       .  A
O1302     Ni1304   1.908       .  S
O1302      C1305   1.279       .  A
Ni1303     O1479   1.906   1_455  S
Ni1303    Ni1304   2.387   1_455  S
Ni1304     O1482   1.915       .  S
C1305      C1358   1.484       .  S
C1306      C1401   1.479       .  S
C1307      C1371   1.478       .  S
C1308      C1411   1.472       .  S
O1309     Ni1317   1.918       .  S
O1309      C1319   1.282       .  A
O1310      C1320   1.281       .  A
O1311      C1321   1.279       .  A
O1312     Ni1317   1.901       .  S
O1312      C1322   1.278       .  A
O1313     Ni1318   1.916       .  S
O1313      C1322   1.281       .  A
O1314      C1321   1.282       .  A
O1315      C1320   1.281       .  A
O1316     Ni1318   1.912       .  S
O1316      C1319   1.280       .  A
Ni1317     O1492   1.918       .  S
Ni1317     O1493   1.900       .  S
Ni1317    Ni1318   2.387       .  S
Ni1318     O1496   1.918       .  S
Ni1318     O1497   1.913       .  S
C1319      C1431   1.480       .  S
C1320      C1378   1.478       .  S
C1321      C1418   1.478       .  S
C1322      C1391   1.471       .  S
O1323     Ni2059   1.913       .  S
O1323      C1333   1.281       .  A
O1324     Ni1331   1.913   1_545  S
O1324      C1334   1.280       .  A
O1325     Ni1877   1.907       .  S
O1325      C1335   1.280       .  A
O1326     Ni1513   1.908   1_545  S
O1326      C1336   1.280       .  A
O1327     Ni1514   1.924       .  S
O1327      C1336   1.283       .  A
O1328     Ni1878   1.924       .  S
O1328      C1335   1.283       .  A
O1329     Ni1332   1.909       .  S
O1329      C1334   1.280       .  A
O1330     Ni2060   1.911       .  S
O1330      C1333   1.280       .  A
Ni1331     O1687   1.913       .  S
Ni1331     O1871   1.907       .  S
Ni1331    Ni1332   2.386   1_565  S
Ni1332     O1874   1.924   1_545  S
Ni1332     O1694   1.911   1_545  S
C1333      C1448   1.479       .  S
C1334      C1338   1.476       .  S
C1335      C1438   1.481       .  S
C1336      C1348   1.482       .  S
C1337      C1338   1.410       .  A
C1337      C1342   1.398       .  A
C1337      F1344   1.358       .  S
C1338      C1339   1.408       .  A
C1339      C1340   1.393       .  A
C1339      F1346   1.358       .  S
C1340      C1341   1.400       .  A
C1340      F1345   1.358       .  S
C1341      C1342   1.401       .  A
C1342      F1343   1.358       .  S
C1347      C1348   1.410       .  A
C1347      C1352   1.402       .  A
C1347      F1354   1.358       .  S
C1348      C1349   1.410       .  A
C1349      C1350   1.395       .  A
C1349      F1356   1.358       .  S
C1350      C1351   1.400       .  A
C1350      F1355   1.357       .  S
C1351      C1352   1.404       .  A
C1352      F1353   1.358       .  S
C1357      C1358   1.410       .  A
C1357      C1362   1.399       .  A
C1357      F1364   1.357       .  S
C1358      C1359   1.412       .  A
C1359      C1360   1.396       .  A
C1359      F1366   1.358       .  S
C1360      C1361   1.400       .  A
C1360      F1365   1.358       .  S
C1361      C1362   1.402       .  A
C1362      F1363   1.358       .  S
C1367      C1368   1.401       .  A
C1367      C1372   1.397       .  A
C1367      F1374   1.358       .  S
C1368      C1369   1.398       .  A
C1369      C1370   1.393       .  A
C1369      F1376   1.358       .  S
C1370      C1371   1.411       .  A
C1370      F1375   1.358       .  S
C1371      C1372   1.410       .  A
C1372      F1373   1.358       .  S
C1377      C1378   1.408       .  A
C1377      C1382   1.401       .  A
C1377      F1384   1.358       .  S
C1378      C1379   1.407       .  A
C1379      C1380   1.395       .  A
C1379      F1386   1.358       .  S
C1380      C1381   1.403       .  A
C1380      F1385   1.357       .  S
C1381      C1382   1.406       .  A
C1382      F1383   1.357       .  S
C1387      C1388   1.400       .  A
C1387      C1392   1.391       .  A
C1387      F1394   1.358       .  S
C1388      C1389   1.403       .  A
C1389      C1390   1.397       .  A
C1389      F1396   1.358       .  S
C1390      C1391   1.407       .  A
C1390      F1395   1.358       .  S
C1391      C1392   1.407       .  A
C1392      F1393   1.358       .  S
C1397      C1398   1.405       .  A
C1397      C1402   1.402       .  A
C1397      F1404   1.358       .  S
C1398      C1399   1.401       .  A
C1399      C1400   1.393       .  A
C1399      F1406   1.358       .  S
C1400      C1401   1.408       .  A
C1400      F1405   1.358       .  S
C1401      C1402   1.409       .  A
C1402      F1403   1.358       .  S
C1407      C1408   1.402       .  A
C1407      C1412   1.393       .  A
C1407      F1414   1.357       .  S
C1408      C1409   1.403       .  A
C1409      C1410   1.398       .  A
C1409      F1416   1.357       .  S
C1410      C1411   1.407       .  A
C1410      F1415   1.358       .  S
C1411      C1412   1.407       .  A
C1412      F1413   1.358       .  S
C1417      C1418   1.411       .  A
C1417      C1422   1.399       .  A
C1417      F1424   1.358       .  S
C1418      C1419   1.411       .  A
C1419      C1420   1.390       .  A
C1419      F1426   1.358       .  S
C1420      C1421   1.397       .  A
C1420      F1425   1.357       .  S
C1421      C1422   1.401       .  A
C1422      F1423   1.358       .  S
C1427      C1428   1.403       .  A
C1427      C1432   1.398       .  A
C1427      F1434   1.357       .  S
C1428      C1429   1.401       .  A
C1429      C1430   1.397       .  A
C1429      F1436   1.357       .  S
C1430      C1431   1.409       .  A
C1430      F1435   1.358       .  S
C1431      C1432   1.409       .  A
C1432      F1433   1.358       .  S
C1437      C1438   1.410       .  A
C1437      C1442   1.402       .  A
C1437      F1444   1.358       .  S
C1438      C1439   1.409       .  A
C1439      C1440   1.393       .  A
C1439      F1446   1.358       .  S
C1440      C1441   1.400       .  A
C1440      F1445   1.357       .  S
C1441      C1442   1.405       .  A
C1442      F1443   1.357       .  S
C1447      C1448   1.410       .  A
C1447      C1452   1.396       .  A
C1447      F1454   1.358       .  S
C1448      C1449   1.411       .  A
C1449      C1450   1.396       .  A
C1449      F1456   1.358       .  S
C1450      C1451   1.400       .  A
C1450      F1455   1.358       .  S
C1451      C1452   1.400       .  A
C1452      F1453   1.358       .  S
C1457      H1458   1.112       .  S
C1457      C1463   1.533       .  S
C1457      C1462   1.532       .  S
C1457      C1461   1.532       .  S
C1459      H1460   1.112       .  S
C1459      C1465   1.533       .  S
C1459      C1464   1.532       .  S
C1459      C1466   1.535       .  S
C1461      C1464   1.367       .  D
C1461      C1603   1.468       .  S
C1462      C1465   1.369       .  D
C1462      C1623   1.478       .  S
C1463      C1466   1.371       .  D
C1463      C1580   1.478       .  S
C1464      C1610   1.477       .  S
C1465      C1633   1.470       .  S
C1466      C1590   1.473       .  S
C1467      H1468   1.112       .  S
C1467      C1473   1.531       .  S
C1467      C1472   1.536       .  S
C1467      C1471   1.533       .  S
C1469      H1470   1.112       .  S
C1469      C1475   1.532       .  S
C1469      C1474   1.532       .  S
C1469      C1476   1.532       .  S
C1471      C1474   1.369       .  D
C1471      C1533   1.477       .  S
C1472      C1475   1.372       .  D
C1472      C1570   1.469       .  S
C1473      C1476   1.366       .  D
C1473      C1543   1.474       .  S
C1474      C1523   1.470       .  S
C1475      C1563   1.482       .  S
C1476      C1550   1.468       .  S
O1477     Ni1485   1.923   1_655  S
O1477      C1487   1.283       .  A
O1478      C1488   1.282       .  A
O1479      C1489   1.279       .  A
O1480      C1490   1.279       .  A
O1481      C1490   1.281       .  A
O1482      C1489   1.281       .  A
O1483      C1488   1.280       .  A
O1484     Ni1486   1.908   1_556  S
O1484      C1487   1.279       .  A
Ni1485    Ni1486   2.387   1_456  S
C1487      C1540   1.484       .  S
C1488      C1583   1.479       .  S
C1489      C1553   1.478       .  S
C1490      C1593   1.472       .  S
O1491     Ni1499   1.918       .  S
O1491      C1501   1.282       .  A
O1492      C1502   1.281       .  A
O1493      C1503   1.279       .  A
O1494     Ni1499   1.901       .  S
O1494      C1504   1.278       .  A
O1495     Ni1500   1.916       .  S
O1495      C1504   1.281       .  A
O1496      C1503   1.282       .  A
O1497      C1502   1.281       .  A
O1498     Ni1500   1.912       .  S
O1498      C1501   1.280       .  A
Ni1499    Ni1500   2.387       .  S
C1501      C1613   1.480       .  S
C1502      C1560   1.478       .  S
C1503      C1600   1.478       .  S
C1504      C1573   1.471       .  S
O1505     Ni1695   1.913   1_556  S
O1505      C1515   1.281       .  A
O1506     Ni1513   1.913   1_545  S
O1506      C1516   1.280       .  A
O1507     Ni2059   1.907       .  S
O1507      C1517   1.280       .  A
O1508      C1518   1.280       .  A
O1509      C1518   1.283       .  A
O1510     Ni2060   1.924       .  S
O1510      C1517   1.283       .  A
O1511     Ni1514   1.909       .  S
O1511      C1516   1.280       .  A
O1512     Ni1696   1.911   1_556  S
O1512      C1515   1.280       .  A
Ni1513     O1869   1.913       .  S
Ni1513     O2053   1.907       .  S
Ni1513    Ni1514   2.386   1_565  S
Ni1514     O2056   1.924   1_545  S
Ni1514     O1876   1.911   1_545  S
C1515      C1630   1.479       .  S
C1516      C1520   1.476       .  S
C1517      C1620   1.481       .  S
C1518      C1530   1.482       .  S
C1519      C1520   1.410       .  A
C1519      C1524   1.398       .  A
C1519      F1526   1.358       .  S
C1520      C1521   1.408       .  A
C1521      C1522   1.393       .  A
C1521      F1528   1.358       .  S
C1522      C1523   1.400       .  A
C1522      F1527   1.358       .  S
C1523      C1524   1.401       .  A
C1524      F1525   1.358       .  S
C1529      C1530   1.410       .  A
C1529      C1534   1.402       .  A
C1529      F1536   1.358       .  S
C1530      C1531   1.410       .  A
C1531      C1532   1.395       .  A
C1531      F1538   1.358       .  S
C1532      C1533   1.400       .  A
C1532      F1537   1.357       .  S
C1533      C1534   1.404       .  A
C1534      F1535   1.358       .  S
C1539      C1540   1.410       .  A
C1539      C1544   1.399       .  A
C1539      F1546   1.357       .  S
C1540      C1541   1.412       .  A
C1541      C1542   1.396       .  A
C1541      F1548   1.358       .  S
C1542      C1543   1.400       .  A
C1542      F1547   1.358       .  S
C1543      C1544   1.402       .  A
C1544      F1545   1.358       .  S
C1549      C1550   1.401       .  A
C1549      C1554   1.397       .  A
C1549      F1556   1.358       .  S
C1550      C1551   1.398       .  A
C1551      C1552   1.393       .  A
C1551      F1558   1.358       .  S
C1552      C1553   1.411       .  A
C1552      F1557   1.358       .  S
C1553      C1554   1.410       .  A
C1554      F1555   1.358       .  S
C1559      C1560   1.408       .  A
C1559      C1564   1.401       .  A
C1559      F1566   1.358       .  S
C1560      C1561   1.407       .  A
C1561      C1562   1.395       .  A
C1561      F1568   1.358       .  S
C1562      C1563   1.403       .  A
C1562      F1567   1.357       .  S
C1563      C1564   1.406       .  A
C1564      F1565   1.357       .  S
C1569      C1570   1.400       .  A
C1569      C1574   1.391       .  A
C1569      F1576   1.358       .  S
C1570      C1571   1.403       .  A
C1571      C1572   1.397       .  A
C1571      F1578   1.358       .  S
C1572      C1573   1.407       .  A
C1572      F1577   1.358       .  S
C1573      C1574   1.407       .  A
C1574      F1575   1.358       .  S
C1579      C1580   1.405       .  A
C1579      C1584   1.402       .  A
C1579      F1586   1.358       .  S
C1580      C1581   1.401       .  A
C1581      C1582   1.393       .  A
C1581      F1588   1.358       .  S
C1582      C1583   1.408       .  A
C1582      F1587   1.358       .  S
C1583      C1584   1.409       .  A
C1584      F1585   1.358       .  S
C1589      C1590   1.402       .  A
C1589      C1594   1.393       .  A
C1589      F1596   1.357       .  S
C1590      C1591   1.403       .  A
C1591      C1592   1.398       .  A
C1591      F1598   1.357       .  S
C1592      C1593   1.407       .  A
C1592      F1597   1.358       .  S
C1593      C1594   1.407       .  A
C1594      F1595   1.358       .  S
C1599      C1600   1.411       .  A
C1599      C1604   1.399       .  A
C1599      F1606   1.358       .  S
C1600      C1601   1.411       .  A
C1601      C1602   1.390       .  A
C1601      F1608   1.358       .  S
C1602      C1603   1.397       .  A
C1602      F1607   1.357       .  S
C1603      C1604   1.401       .  A
C1604      F1605   1.358       .  S
C1609      C1610   1.403       .  A
C1609      C1614   1.398       .  A
C1609      F1616   1.357       .  S
C1610      C1611   1.401       .  A
C1611      C1612   1.397       .  A
C1611      F1618   1.357       .  S
C1612      C1613   1.409       .  A
C1612      F1617   1.358       .  S
C1613      C1614   1.409       .  A
C1614      F1615   1.358       .  S
C1619      C1620   1.410       .  A
C1619      C1624   1.402       .  A
C1619      F1626   1.358       .  S
C1620      C1621   1.409       .  A
C1621      C1622   1.393       .  A
C1621      F1628   1.358       .  S
C1622      C1623   1.400       .  A
C1622      F1627   1.357       .  S
C1623      C1624   1.405       .  A
C1624      F1625   1.357       .  S
C1629      C1630   1.410       .  A
C1629      C1634   1.396       .  A
C1629      F1636   1.358       .  S
C1630      C1631   1.411       .  A
C1631      C1632   1.396       .  A
C1631      F1638   1.358       .  S
C1632      C1633   1.400       .  A
C1632      F1637   1.358       .  S
C1633      C1634   1.400       .  A
C1634      F1635   1.358       .  S
C1639      H1640   1.112       .  S
C1639      C1645   1.533       .  S
C1639      C1644   1.532       .  S
C1639      C1643   1.532       .  S
C1641      H1642   1.112       .  S
C1641      C1647   1.533       .  S
C1641      C1646   1.532       .  S
C1641      C1648   1.535       .  S
C1643      C1646   1.367       .  D
C1643      C1785   1.468       .  S
C1644      C1647   1.369       .  D
C1644      C1805   1.478       .  S
C1645      C1648   1.371       .  D
C1645      C1762   1.478       .  S
C1646      C1792   1.477       .  S
C1647      C1815   1.470       .  S
C1648      C1772   1.473       .  S
C1649      H1650   1.112       .  S
C1649      C1655   1.531       .  S
C1649      C1654   1.536       .  S
C1649      C1653   1.533       .  S
C1651      H1652   1.112       .  S
C1651      C1657   1.532       .  S
C1651      C1656   1.532       .  S
C1651      C1658   1.532       .  S
C1653      C1656   1.369       .  D
C1653      C1715   1.477       .  S
C1654      C1657   1.372       .  D
C1654      C1752   1.469       .  S
C1655      C1658   1.366       .  D
C1655      C1725   1.474       .  S
C1656      C1705   1.470       .  S
C1657      C1745   1.482       .  S
C1658      C1732   1.468       .  S
O1659     Ni1667   1.923   1_655  S
O1659      C1669   1.283       .  A
O1660      C1670   1.282       .  A
O1661     Ni2031   1.906   1_654  S
O1661      C1671   1.279       .  A
O1662      C1672   1.279       .  A
O1663      C1672   1.281       .  A
O1664     Ni2032   1.915       .  S
O1664      C1671   1.281       .  A
O1665      C1670   1.280       .  A
O1666     Ni1668   1.908       .  S
O1666      C1669   1.279       .  A
Ni1667     O1843   1.906   1_455  S
Ni1667    Ni1668   2.387   1_455  S
Ni1668     O1846   1.915       .  S
C1669      C1722   1.484       .  S
C1670      C1765   1.479       .  S
C1671      C1735   1.478       .  S
C1672      C1775   1.472       .  S
O1673     Ni1681   1.918       .  S
O1673      C1683   1.282       .  A
O1674     Ni2045   1.918   1_554  S
O1674      C1684   1.281       .  A
O1675     Ni2045   1.900   1_554  S
O1675      C1685   1.279       .  A
O1676     Ni1681   1.901       .  S
O1676      C1686   1.278       .  A
O1677     Ni1682   1.916       .  S
O1677      C1686   1.281       .  A
O1678     Ni2046   1.918   1_554  S
O1678      C1685   1.282       .  A
O1679     Ni2046   1.913   1_554  S
O1679      C1684   1.281       .  A
O1680     Ni1682   1.912       .  S
O1680      C1683   1.280       .  A
Ni1681     O1856   1.918       .  S
Ni1681     O1857   1.900       .  S
Ni1681    Ni1682   2.387       .  S
Ni1682     O1860   1.918       .  S
Ni1682     O1861   1.913       .  S
C1683      C1795   1.480       .  S
C1684      C1742   1.478       .  S
C1685      C1782   1.478       .  S
C1686      C1755   1.471       .  S
O1687      C1697   1.281       .  A
O1688     Ni1695   1.913       .  S
O1688      C1698   1.280       .  A
O1689      C1699   1.280       .  A
O1690     Ni1877   1.908       .  S
O1690      C1700   1.280       .  A
O1691     Ni1878   1.924       .  S
O1691      C1700   1.283       .  A
O1692      C1699   1.283       .  A
O1693     Ni1696   1.909       .  S
O1693      C1698   1.280       .  A
O1694      C1697   1.280       .  A
Ni1695     O2054   1.908   1_554  S
Ni1695    Ni1696   2.386       .  S
Ni1696     O2055   1.924   1_554  S
C1697      C1812   1.479       .  S
C1698      C1702   1.476       .  S
C1699      C1802   1.481       .  S
C1700      C1712   1.482       .  S
C1701      C1702   1.410       .  A
C1701      C1706   1.398       .  A
C1701      F1708   1.358       .  S
C1702      C1703   1.408       .  A
C1703      C1704   1.393       .  A
C1703      F1710   1.358       .  S
C1704      C1705   1.400       .  A
C1704      F1709   1.358       .  S
C1705      C1706   1.401       .  A
C1706      F1707   1.358       .  S
C1711      C1712   1.410       .  A
C1711      C1716   1.402       .  A
C1711      F1718   1.358       .  S
C1712      C1713   1.410       .  A
C1713      C1714   1.395       .  A
C1713      F1720   1.358       .  S
C1714      C1715   1.400       .  A
C1714      F1719   1.357       .  S
C1715      C1716   1.404       .  A
C1716      F1717   1.358       .  S
C1721      C1722   1.410       .  A
C1721      C1726   1.399       .  A
C1721      F1728   1.357       .  S
C1722      C1723   1.412       .  A
C1723      C1724   1.396       .  A
C1723      F1730   1.358       .  S
C1724      C1725   1.400       .  A
C1724      F1729   1.358       .  S
C1725      C1726   1.402       .  A
C1726      F1727   1.358       .  S
C1731      C1732   1.401       .  A
C1731      C1736   1.397       .  A
C1731      F1738   1.358       .  S
C1732      C1733   1.398       .  A
C1733      C1734   1.393       .  A
C1733      F1740   1.358       .  S
C1734      C1735   1.411       .  A
C1734      F1739   1.358       .  S
C1735      C1736   1.410       .  A
C1736      F1737   1.358       .  S
C1741      C1742   1.408       .  A
C1741      C1746   1.401       .  A
C1741      F1748   1.358       .  S
C1742      C1743   1.407       .  A
C1743      C1744   1.395       .  A
C1743      F1750   1.358       .  S
C1744      C1745   1.403       .  A
C1744      F1749   1.357       .  S
C1745      C1746   1.406       .  A
C1746      F1747   1.357       .  S
C1751      C1752   1.400       .  A
C1751      C1756   1.391       .  A
C1751      F1758   1.358       .  S
C1752      C1753   1.403       .  A
C1753      C1754   1.397       .  A
C1753      F1760   1.358       .  S
C1754      C1755   1.407       .  A
C1754      F1759   1.358       .  S
C1755      C1756   1.407       .  A
C1756      F1757   1.358       .  S
C1761      C1762   1.405       .  A
C1761      C1766   1.402       .  A
C1761      F1768   1.358       .  S
C1762      C1763   1.401       .  A
C1763      C1764   1.393       .  A
C1763      F1770   1.358       .  S
C1764      C1765   1.408       .  A
C1764      F1769   1.358       .  S
C1765      C1766   1.409       .  A
C1766      F1767   1.358       .  S
C1771      C1772   1.402       .  A
C1771      C1776   1.393       .  A
C1771      F1778   1.357       .  S
C1772      C1773   1.403       .  A
C1773      C1774   1.398       .  A
C1773      F1780   1.357       .  S
C1774      C1775   1.407       .  A
C1774      F1779   1.358       .  S
C1775      C1776   1.407       .  A
C1776      F1777   1.358       .  S
C1781      C1782   1.411       .  A
C1781      C1786   1.399       .  A
C1781      F1788   1.358       .  S
C1782      C1783   1.411       .  A
C1783      C1784   1.390       .  A
C1783      F1790   1.358       .  S
C1784      C1785   1.397       .  A
C1784      F1789   1.357       .  S
C1785      C1786   1.401       .  A
C1786      F1787   1.358       .  S
C1791      C1792   1.403       .  A
C1791      C1796   1.398       .  A
C1791      F1798   1.357       .  S
C1792      C1793   1.401       .  A
C1793      C1794   1.397       .  A
C1793      F1800   1.357       .  S
C1794      C1795   1.409       .  A
C1794      F1799   1.358       .  S
C1795      C1796   1.409       .  A
C1796      F1797   1.358       .  S
C1801      C1802   1.410       .  A
C1801      C1806   1.402       .  A
C1801      F1808   1.358       .  S
C1802      C1803   1.409       .  A
C1803      C1804   1.393       .  A
C1803      F1810   1.358       .  S
C1804      C1805   1.400       .  A
C1804      F1809   1.357       .  S
C1805      C1806   1.405       .  A
C1806      F1807   1.357       .  S
C1811      C1812   1.410       .  A
C1811      C1816   1.396       .  A
C1811      F1818   1.358       .  S
C1812      C1813   1.411       .  A
C1813      C1814   1.396       .  A
C1813      F1820   1.358       .  S
C1814      C1815   1.400       .  A
C1814      F1819   1.358       .  S
C1815      C1816   1.400       .  A
C1816      F1817   1.358       .  S
C1821      H1822   1.112       .  S
C1821      C1827   1.533       .  S
C1821      C1826   1.532       .  S
C1821      C1825   1.532       .  S
C1823      H1824   1.112       .  S
C1823      C1829   1.533       .  S
C1823      C1828   1.532       .  S
C1823      C1830   1.535       .  S
C1825      C1828   1.367       .  D
C1825      C1967   1.468       .  S
C1826      C1829   1.369       .  D
C1826      C1987   1.478       .  S
C1827      C1830   1.371       .  D
C1827      C1944   1.478       .  S
C1828      C1974   1.477       .  S
C1829      C1997   1.470       .  S
C1830      C1954   1.473       .  S
C1831      H1832   1.112       .  S
C1831      C1837   1.531       .  S
C1831      C1836   1.536       .  S
C1831      C1835   1.533       .  S
C1833      H1834   1.112       .  S
C1833      C1839   1.532       .  S
C1833      C1838   1.532       .  S
C1833      C1840   1.532       .  S
C1835      C1838   1.369       .  D
C1835      C1897   1.477       .  S
C1836      C1839   1.372       .  D
C1836      C1934   1.469       .  S
C1837      C1840   1.366       .  D
C1837      C1907   1.474       .  S
C1838      C1887   1.470       .  S
C1839      C1927   1.482       .  S
C1840      C1914   1.468       .  S
O1841     Ni1849   1.923   1_655  S
O1841      C1851   1.283       .  A
O1842      C1852   1.282       .  A
O1843      C1853   1.279       .  A
O1844      C1854   1.279       .  A
O1845      C1854   1.281       .  A
O1846      C1853   1.281       .  A
O1847      C1852   1.280       .  A
O1848     Ni1850   1.908       .  S
O1848      C1851   1.279       .  A
Ni1849     O2025   1.906   1_455  S
Ni1849    Ni1850   2.387   1_455  S
Ni1850     O2028   1.915       .  S
C1851      C1904   1.484       .  S
C1852      C1947   1.479       .  S
C1853      C1917   1.478       .  S
C1854      C1957   1.472       .  S
O1855     Ni1863   1.918       .  S
O1855      C1865   1.282       .  A
O1856      C1866   1.281       .  A
O1857      C1867   1.279       .  A
O1858     Ni1863   1.901       .  S
O1858      C1868   1.278       .  A
O1859     Ni1864   1.916       .  S
O1859      C1868   1.281       .  A
O1860      C1867   1.282       .  A
O1861      C1866   1.281       .  A
O1862     Ni1864   1.912       .  S
O1862      C1865   1.280       .  A
Ni1863     O2038   1.918       .  S
Ni1863     O2039   1.900       .  S
Ni1863    Ni1864   2.387       .  S
Ni1864     O2042   1.918       .  S
Ni1864     O2043   1.913       .  S
C1865      C1977   1.480       .  S
C1866      C1924   1.478       .  S
C1867      C1964   1.478       .  S
C1868      C1937   1.471       .  S
O1869      C1879   1.281       .  A
O1870     Ni1877   1.913       .  S
O1870      C1880   1.280       .  A
O1871      C1881   1.280       .  A
O1872     Ni2059   1.908       .  S
O1872      C1882   1.280       .  A
O1873     Ni2060   1.924       .  S
O1873      C1882   1.283       .  A
O1874      C1881   1.283       .  A
O1875     Ni1878   1.909       .  S
O1875      C1880   1.280       .  A
O1876      C1879   1.280       .  A
Ni1877    Ni1878   2.386       .  S
C1879      C1994   1.479       .  S
C1880      C1884   1.476       .  S
C1881      C1984   1.481       .  S
C1882      C1894   1.482       .  S
C1883      C1884   1.410       .  A
C1883      C1888   1.398       .  A
C1883      F1890   1.358       .  S
C1884      C1885   1.408       .  A
C1885      C1886   1.393       .  A
C1885      F1892   1.358       .  S
C1886      C1887   1.400       .  A
C1886      F1891   1.358       .  S
C1887      C1888   1.401       .  A
C1888      F1889   1.358       .  S
C1893      C1894   1.410       .  A
C1893      C1898   1.402       .  A
C1893      F1900   1.358       .  S
C1894      C1895   1.410       .  A
C1895      C1896   1.395       .  A
C1895      F1902   1.358       .  S
C1896      C1897   1.400       .  A
C1896      F1901   1.357       .  S
C1897      C1898   1.404       .  A
C1898      F1899   1.358       .  S
C1903      C1904   1.410       .  A
C1903      C1908   1.399       .  A
C1903      F1910   1.357       .  S
C1904      C1905   1.412       .  A
C1905      C1906   1.396       .  A
C1905      F1912   1.358       .  S
C1906      C1907   1.400       .  A
C1906      F1911   1.358       .  S
C1907      C1908   1.402       .  A
C1908      F1909   1.358       .  S
C1913      C1914   1.401       .  A
C1913      C1918   1.397       .  A
C1913      F1920   1.358       .  S
C1914      C1915   1.398       .  A
C1915      C1916   1.393       .  A
C1915      F1922   1.358       .  S
C1916      C1917   1.411       .  A
C1916      F1921   1.358       .  S
C1917      C1918   1.410       .  A
C1918      F1919   1.358       .  S
C1923      C1924   1.408       .  A
C1923      C1928   1.401       .  A
C1923      F1930   1.358       .  S
C1924      C1925   1.407       .  A
C1925      C1926   1.395       .  A
C1925      F1932   1.358       .  S
C1926      C1927   1.403       .  A
C1926      F1931   1.357       .  S
C1927      C1928   1.406       .  A
C1928      F1929   1.357       .  S
C1933      C1934   1.400       .  A
C1933      C1938   1.391       .  A
C1933      F1940   1.358       .  S
C1934      C1935   1.403       .  A
C1935      C1936   1.397       .  A
C1935      F1942   1.358       .  S
C1936      C1937   1.407       .  A
C1936      F1941   1.358       .  S
C1937      C1938   1.407       .  A
C1938      F1939   1.358       .  S
C1943      C1944   1.405       .  A
C1943      C1948   1.402       .  A
C1943      F1950   1.358       .  S
C1944      C1945   1.401       .  A
C1945      C1946   1.393       .  A
C1945      F1952   1.358       .  S
C1946      C1947   1.408       .  A
C1946      F1951   1.358       .  S
C1947      C1948   1.409       .  A
C1948      F1949   1.358       .  S
C1953      C1954   1.402       .  A
C1953      C1958   1.393       .  A
C1953      F1960   1.357       .  S
C1954      C1955   1.403       .  A
C1955      C1956   1.398       .  A
C1955      F1962   1.357       .  S
C1956      C1957   1.407       .  A
C1956      F1961   1.358       .  S
C1957      C1958   1.407       .  A
C1958      F1959   1.358       .  S
C1963      C1964   1.411       .  A
C1963      C1968   1.399       .  A
C1963      F1970   1.358       .  S
C1964      C1965   1.411       .  A
C1965      C1966   1.390       .  A
C1965      F1972   1.358       .  S
C1966      C1967   1.397       .  A
C1966      F1971   1.357       .  S
C1967      C1968   1.401       .  A
C1968      F1969   1.358       .  S
C1973      C1974   1.403       .  A
C1973      C1978   1.398       .  A
C1973      F1980   1.357       .  S
C1974      C1975   1.401       .  A
C1975      C1976   1.397       .  A
C1975      F1982   1.357       .  S
C1976      C1977   1.409       .  A
C1976      F1981   1.358       .  S
C1977      C1978   1.409       .  A
C1978      F1979   1.358       .  S
C1983      C1984   1.410       .  A
C1983      C1988   1.402       .  A
C1983      F1990   1.358       .  S
C1984      C1985   1.409       .  A
C1985      C1986   1.393       .  A
C1985      F1992   1.358       .  S
C1986      C1987   1.400       .  A
C1986      F1991   1.357       .  S
C1987      C1988   1.405       .  A
C1988      F1989   1.357       .  S
C1993      C1994   1.410       .  A
C1993      C1998   1.396       .  A
C1993      F2000   1.358       .  S
C1994      C1995   1.411       .  A
C1995      C1996   1.396       .  A
C1995      F2002   1.358       .  S
C1996      C1997   1.400       .  A
C1996      F2001   1.358       .  S
C1997      C1998   1.400       .  A
C1998      F1999   1.358       .  S
C2003      H2004   1.112       .  S
C2003      C2009   1.533       .  S
C2003      C2008   1.532       .  S
C2003      C2007   1.532       .  S
C2005      H2006   1.112       .  S
C2005      C2011   1.533       .  S
C2005      C2010   1.532       .  S
C2005      C2012   1.535       .  S
C2007      C2010   1.367       .  D
C2007      C2149   1.468       .  S
C2008      C2011   1.369       .  D
C2008      C2169   1.478       .  S
C2009      C2012   1.371       .  D
C2009      C2126   1.478       .  S
C2010      C2156   1.477       .  S
C2011      C2179   1.470       .  S
C2012      C2136   1.473       .  S
C2013      H2014   1.112       .  S
C2013      C2019   1.531       .  S
C2013      C2018   1.536       .  S
C2013      C2017   1.533       .  S
C2015      H2016   1.112       .  S
C2015      C2021   1.532       .  S
C2015      C2020   1.532       .  S
C2015      C2022   1.532       .  S
C2017      C2020   1.369       .  D
C2017      C2079   1.477       .  S
C2018      C2021   1.372       .  D
C2018      C2116   1.469       .  S
C2019      C2022   1.366       .  D
C2019      C2089   1.474       .  S
C2020      C2069   1.470       .  S
C2021      C2109   1.482       .  S
C2022      C2096   1.468       .  S
O2023     Ni2031   1.923   1_655  S
O2023      C2033   1.283       .  A
O2024      C2034   1.282       .  A
O2025      C2035   1.279       .  A
O2026      C2036   1.279       .  A
O2027      C2036   1.281       .  A
O2028      C2035   1.281       .  A
O2029      C2034   1.280       .  A
O2030     Ni2032   1.908   1_556  S
O2030      C2033   1.279       .  A
Ni2031    Ni2032   2.387   1_456  S
C2033      C2086   1.484       .  S
C2034      C2129   1.479       .  S
C2035      C2099   1.478       .  S
C2036      C2139   1.472       .  S
O2037     Ni2045   1.918       .  S
O2037      C2047   1.282       .  A
O2038      C2048   1.281       .  A
O2039      C2049   1.279       .  A
O2040     Ni2045   1.901       .  S
O2040      C2050   1.278       .  A
O2041     Ni2046   1.916       .  S
O2041      C2050   1.281       .  A
O2042      C2049   1.282       .  A
O2043      C2048   1.281       .  A
O2044     Ni2046   1.912       .  S
O2044      C2047   1.280       .  A
Ni2045    Ni2046   2.387       .  S
C2047      C2159   1.480       .  S
C2048      C2106   1.478       .  S
C2049      C2146   1.478       .  S
C2050      C2119   1.471       .  S
O2051      C2061   1.281       .  A
O2052     Ni2059   1.913       .  S
O2052      C2062   1.280       .  A
O2053      C2063   1.280       .  A
O2054      C2064   1.280       .  A
O2055      C2064   1.283       .  A
O2056      C2063   1.283       .  A
O2057     Ni2060   1.909       .  S
O2057      C2062   1.280       .  A
O2058      C2061   1.280       .  A
Ni2059    Ni2060   2.386       .  S
C2061      C2176   1.479       .  S
C2062      C2066   1.476       .  S
C2063      C2166   1.481       .  S
C2064      C2076   1.482       .  S
C2065      C2066   1.410       .  A
C2065      C2070   1.398       .  A
C2065      F2072   1.358       .  S
C2066      C2067   1.408       .  A
C2067      C2068   1.393       .  A
C2067      F2074   1.358       .  S
C2068      C2069   1.400       .  A
C2068      F2073   1.358       .  S
C2069      C2070   1.401       .  A
C2070      F2071   1.358       .  S
C2075      C2076   1.410       .  A
C2075      C2080   1.402       .  A
C2075      F2082   1.358       .  S
C2076      C2077   1.410       .  A
C2077      C2078   1.395       .  A
C2077      F2084   1.358       .  S
C2078      C2079   1.400       .  A
C2078      F2083   1.357       .  S
C2079      C2080   1.404       .  A
C2080      F2081   1.358       .  S
C2085      C2086   1.410       .  A
C2085      C2090   1.399       .  A
C2085      F2092   1.357       .  S
C2086      C2087   1.412       .  A
C2087      C2088   1.396       .  A
C2087      F2094   1.358       .  S
C2088      C2089   1.400       .  A
C2088      F2093   1.358       .  S
C2089      C2090   1.402       .  A
C2090      F2091   1.358       .  S
C2095      C2096   1.401       .  A
C2095      C2100   1.397       .  A
C2095      F2102   1.358       .  S
C2096      C2097   1.398       .  A
C2097      C2098   1.393       .  A
C2097      F2104   1.358       .  S
C2098      C2099   1.411       .  A
C2098      F2103   1.358       .  S
C2099      C2100   1.410       .  A
C2100      F2101   1.358       .  S
C2105      C2106   1.408       .  A
C2105      C2110   1.401       .  A
C2105      F2112   1.358       .  S
C2106      C2107   1.407       .  A
C2107      C2108   1.395       .  A
C2107      F2114   1.358       .  S
C2108      C2109   1.403       .  A
C2108      F2113   1.357       .  S
C2109      C2110   1.406       .  A
C2110      F2111   1.357       .  S
C2115      C2116   1.400       .  A
C2115      C2120   1.391       .  A
C2115      F2122   1.358       .  S
C2116      C2117   1.403       .  A
C2117      C2118   1.397       .  A
C2117      F2124   1.358       .  S
C2118      C2119   1.407       .  A
C2118      F2123   1.358       .  S
C2119      C2120   1.407       .  A
C2120      F2121   1.358       .  S
C2125      C2126   1.405       .  A
C2125      C2130   1.402       .  A
C2125      F2132   1.358       .  S
C2126      C2127   1.401       .  A
C2127      C2128   1.393       .  A
C2127      F2134   1.358       .  S
C2128      C2129   1.408       .  A
C2128      F2133   1.358       .  S
C2129      C2130   1.409       .  A
C2130      F2131   1.358       .  S
C2135      C2136   1.402       .  A
C2135      C2140   1.393       .  A
C2135      F2142   1.357       .  S
C2136      C2137   1.403       .  A
C2137      C2138   1.398       .  A
C2137      F2144   1.357       .  S
C2138      C2139   1.407       .  A
C2138      F2143   1.358       .  S
C2139      C2140   1.407       .  A
C2140      F2141   1.358       .  S
C2145      C2146   1.411       .  A
C2145      C2150   1.399       .  A
C2145      F2152   1.358       .  S
C2146      C2147   1.411       .  A
C2147      C2148   1.390       .  A
C2147      F2154   1.358       .  S
C2148      C2149   1.397       .  A
C2148      F2153   1.357       .  S
C2149      C2150   1.401       .  A
C2150      F2151   1.358       .  S
C2155      C2156   1.403       .  A
C2155      C2160   1.398       .  A
C2155      F2162   1.357       .  S
C2156      C2157   1.401       .  A
C2157      C2158   1.397       .  A
C2157      F2164   1.357       .  S
C2158      C2159   1.409       .  A
C2158      F2163   1.358       .  S
C2159      C2160   1.409       .  A
C2160      F2161   1.358       .  S
C2165      C2166   1.410       .  A
C2165      C2170   1.402       .  A
C2165      F2172   1.358       .  S
C2166      C2167   1.409       .  A
C2167      C2168   1.393       .  A
C2167      F2174   1.358       .  S
C2168      C2169   1.400       .  A
C2168      F2173   1.357       .  S
C2169      C2170   1.405       .  A
C2170      F2171   1.357       .  S
C2175      C2176   1.410       .  A
C2175      C2180   1.396       .  A
C2175      F2182   1.358       .  S
C2176      C2177   1.411       .  A
C2177      C2178   1.396       .  A
C2177      F2184   1.358       .  S
C2178      C2179   1.400       .  A
C2178      F2183   1.358       .  S
C2179      C2180   1.400       .  A
C2180      F2181   1.358       .  S
