geometry optimzed in LAMMPS
_audit_creation_date              2020-12-01 
_audit_creation_method            'lammps2cif' 
_symmetry_space_group_name_H-M    'P1' 
_symmetry_Int_Tables_number       1 
_symmetry_cell_setting            triclinic 
loop_ 
_symmetry_equiv_pos_as_xyz 
  x,y,z 
_cell_length_a                    50.2764121 
_cell_length_b                    50.46638725629726 
_cell_length_c                    50.15568116645776 
_cell_angle_alpha                 90.07509048594389 
_cell_angle_beta                  89.93650388554012 
_cell_angle_gamma                 90.14722084768991 
loop_ 
_atom_site_label 
_atom_site_type_symbol 
_atom_site_fract_x 
_atom_site_fract_y 
_atom_site_fract_z 
_atom_site_charge 
Fe1        Fe  0.76663251  0.82146968  0.59967313     1.65800
Fe2        Fe  0.72937424  0.84863594  0.55028533     1.73200
Fe3        Fe  0.77613407  0.80138991  0.53533849     1.54400
O4          O  0.81322106  0.80672327  0.55336655    -0.81900
O5          O  0.71013229  0.82007232  0.52866199    -0.80200
O6          O  0.80659560  0.82745143  0.59227265    -0.84400
O7          O  0.77170311  0.78104243  0.59873718    -0.79300
O8          O  0.78395908  0.83276658  0.51008275    -0.81000
O9          O  0.70416879  0.83890741  0.58202837    -0.83800
C10         C  0.77084473  0.76263860  0.58158612     0.97000
C11         C  0.82182385  0.81728653  0.57478643     1.04400
O12         O  0.75753680  0.82401536  0.56163436    -1.12800
O13         O  0.74498061  0.88045819  0.57121849    -0.75200
O14         O  0.76159805  0.86144328  0.60749295    -0.78700
O15         O  0.76995971  0.76699110  0.55675230    -0.79400
C16         C  0.75309905  0.88164212  0.59515264     0.95900
O17         O  0.72785064  0.81461386  0.61051934    -0.77300
O18         O  0.75010518  0.86075394  0.51621541    -0.82500
C19         C  0.71789561  0.80090793  0.51438438     0.98500
C20         C  0.77028877  0.85273101  0.50310841     1.04400
O21         O  0.74172151  0.79260042  0.51424868    -0.78200
C22         C  0.70606145  0.82451584  0.60275722     1.02700
Fe23       Fe  0.81049041  0.89897452  0.26403759     1.65800
Fe24       Fe  0.78984226  0.96228024  0.27430076     1.73200
Fe25       Fe  0.83574833  0.94883266  0.22617919     1.54400
O26         O  0.86525407  0.92042333  0.23292900    -0.81900
O27         O  0.77389775  0.97721168  0.23944170    -0.80200
O28         O  0.85122182  0.89500872  0.26616894    -0.84400
O29         O  0.81035525  0.88778611  0.22409449    -0.79300
O30         O  0.85465109  0.97536157  0.25146368    -0.81000
O31         O  0.75711983  0.93719565  0.27817266    -0.83800
C32         C  0.81193027  0.89936374  0.20157331     0.97000
C33         C  0.86858606  0.90120494  0.24895222     1.04400
O34         O  0.81202988  0.93661362  0.25497970    -1.12800
O35         O  0.80297529  0.94955245  0.31121469    -0.75200
O36         O  0.80948121  0.90616644  0.30486013    -0.78700
O37         O  0.81839486  0.92356691  0.19901176    -0.79400
C38         C  0.80629366  0.92616887  0.32002513     0.95900
O39         O  0.76965741  0.89755078  0.26342499    -0.77300
O40         O  0.81961619  0.99101020  0.27377915    -0.82500
C41         C  0.78612225  0.98526191  0.21883150     0.98500
C42         C  0.84374907  0.99279214  0.26620588     1.04400
O43         O  0.80983501  0.97838941  0.21343700    -0.78200
C44         C  0.75238030  0.91293647  0.27330195     1.02700
Fe45       Fe  0.09796714  0.78184889  0.68278563     1.65800
Fe46       Fe  0.03410612  0.79435114  0.69930303     1.73200
Fe47       Fe  0.04859452  0.74351941  0.65666578     1.54400
O48         O  0.07236834  0.75427741  0.62427785    -0.81900
O49         O  0.00918505  0.76241261  0.70833990    -0.80200
O50         O  0.10749377  0.77257459  0.64389494    -0.84400
O51         O  0.10696672  0.74396223  0.69381757    -0.79300
O52         O  0.01643659  0.76536569  0.64091763    -0.81000
O53         O  0.05249920  0.78810975  0.73551805    -0.83800
C54         C  0.09899067  0.72137514  0.68603927     0.97000
C55         C  0.09641367  0.76218712  0.62375038     1.04400
O56         O  0.06017207  0.77312751  0.67942432    -1.12800
O57         O  0.05517421  0.82981211  0.69385561    -0.75200
O58         O  0.09225414  0.82047963  0.67149897    -0.78700
O59         O  0.07862332  0.71861953  0.67110621    -0.79400
C60         C  0.07626332  0.83697714  0.68168676     0.95900
O61         O  0.09477235  0.79200442  0.72286712    -0.77300
O62         O  0.01357360  0.80222708  0.66488616    -0.82500
C63         C  0.00902124  0.73781578  0.70286970     0.98500
C64         C  0.00582179  0.78795624  0.64562348     1.04400
O65         O  0.02439220  0.72777886  0.68564670    -0.78200
C66         C  0.07690349  0.79134158  0.74081866     1.02700
Fe67       Fe  0.21574627  0.18752781  0.38899766     1.65800
Fe68       Fe  0.20250900  0.20638589  0.45283185     1.73200
Fe69       Fe  0.25550692  0.16624042  0.43905991     1.54400
O70         O  0.25112055  0.13661085  0.40998259    -0.81900
O71         O  0.23465947  0.22403035  0.47154081    -0.80200
O72         O  0.21552613  0.14696607  0.38608394    -0.84400
O73         O  0.25532519  0.18970382  0.37752556    -0.79300
O74         O  0.23247955  0.14475288  0.46570862    -0.81000
O75         O  0.19948831  0.23998359  0.42822113    -0.83800
C76         C  0.27770507  0.19138123  0.38914206     0.97000
C77         C  0.23456919  0.13153218  0.39145704     1.04400
O78         O  0.22453128  0.18683692  0.42707273    -1.12800
O79         O  0.16731114  0.19128921  0.43791894    -0.75200
O80         O  0.17496683  0.18647996  0.39455174    -0.78700
O81         O  0.28085788  0.18646090  0.41375627    -0.79400
C82         C  0.15920443  0.18767401  0.41426512     0.95900
O83         O  0.21493787  0.22792178  0.38819429    -0.77300
O84         O  0.20315540  0.17503398  0.48003516    -0.82500
C85         C  0.25682143  0.21440306  0.47858767     0.98500
C86         C  0.21462529  0.15257154  0.48194811     1.04400
O87         O  0.26570571  0.19273432  0.46926652    -0.78200
C88         C  0.20584618  0.24515782  0.40412289     1.02700
Fe89       Fe  0.17228624  0.11209094  0.71941902     1.65800
Fe90       Fe  0.14517452  0.06577835  0.76020518     1.73200
Fe91       Fe  0.19097943  0.04747632  0.71334848     1.54400
O92         O  0.18118796  0.06032822  0.67501084    -0.81900
O93         O  0.16930890  0.03655710  0.77590921    -0.80200
O94         O  0.17465738  0.10335381  0.67944199    -0.84400
O95         O  0.21291332  0.11167867  0.72188960    -0.79300
O96         O  0.15870463  0.02178420  0.71168412    -0.81000
O97         O  0.16289985  0.09266439  0.78590772    -0.83800
C98         C  0.23083071  0.09443470  0.71811093     0.97000
C99         C  0.17731702  0.08305418  0.66485992     1.04400
O100        O  0.16961083  0.07505774  0.73095313    -1.12800
O101        O  0.11711250  0.09410099  0.75037833    -0.75200
O102        O  0.13152312  0.11653250  0.71543914    -0.78700
O103        O  0.22555880  0.07017623  0.71361052    -0.79400
C104        C  0.11351717  0.11131312  0.73235212     0.95900
O105        O  0.17125552  0.12616102  0.75811143    -0.77300
O106        O  0.12554675  0.03816869  0.73631242    -0.82500
C107        C  0.19158622  0.02610674  0.77053657     0.98500
C108        C  0.13463787  0.02128695  0.71973603     1.04400
O109        O  0.20385190  0.03082817  0.74894093    -0.78200
C110        C  0.16936532  0.11663797  0.78148462     1.02700
Fe111      Fe  0.88505323  0.23194302  0.30832161     1.65800
Fe112      Fe  0.93440407  0.26688780  0.33774913     1.73200
Fe113      Fe  0.94836207  0.22281122  0.28760670     1.54400
O114        O  0.92842804  0.18638109  0.29055896    -0.81900
O115        O  0.95671076  0.28723663  0.31041048    -0.80200
O116        O  0.89227954  0.19269636  0.31579490    -0.84400
O117        O  0.88634830  0.22474047  0.26790297    -0.79300
O118        O  0.97261867  0.21213987  0.31883201    -0.81000
O119        O  0.90298733  0.29243011  0.32861382    -0.83800
C120        C  0.90300190  0.22774125  0.24922192     0.97000
C121        C  0.90792616  0.17769202  0.30285462     1.04400
O122        O  0.92284151  0.24049800  0.31141207    -1.12800
O123        O  0.91291239  0.25033215  0.36880645    -0.75200
O124        O  0.87593741  0.23823079  0.34801553    -0.78700
O125        O  0.92744636  0.23187841  0.25351388    -0.79400
C126        C  0.88835293  0.24454619  0.36901991     0.95900
O127        O  0.87625783  0.27067128  0.30040379    -0.77300
O128        O  0.96755497  0.24451952  0.34900865    -0.82500
C129        C  0.97111626  0.28024881  0.29097050     0.98500
C130        C  0.97955161  0.22412022  0.33999374     1.04400
O131        O  0.97082857  0.25693644  0.28130793    -0.78200
C132        C  0.88327099  0.29157327  0.31265752     1.02700
Fe133      Fe  0.71056166  0.31668298  0.59963878     1.65800
Fe134      Fe  0.70214954  0.29870083  0.53459980     1.73200
Fe135      Fe  0.75226490  0.34077130  0.55271856     1.54400
O136        O  0.74483658  0.36927307  0.58146409    -0.81900
O137        O  0.73691771  0.28284900  0.51851175    -0.80200
O138        O  0.70848798  0.35725555  0.60341877    -0.84400
O139        O  0.74933603  0.31633655  0.61375649    -0.79300
O140        O  0.72969723  0.36187303  0.52565156    -0.81000
O141        O  0.69807907  0.26495755  0.55796601    -0.83800
C142        C  0.77239921  0.31588988  0.60341471     0.97000
C143        C  0.72688014  0.37376345  0.59863383     1.04400
O144        O  0.72152403  0.31857526  0.56224699    -1.12800
O145        O  0.66459090  0.31141015  0.54772683    -0.75200
O146        O  0.67044705  0.31606404  0.59147797    -0.78700
O147        O  0.77673435  0.32109176  0.57904322    -0.79400
C148        C  0.65542181  0.31432517  0.57129004     0.95900
O149        O  0.71111346  0.27611278  0.59915785    -0.77300
O150        O  0.70422936  0.33029551  0.50788174    -0.82500
C151        C  0.75921002  0.29367894  0.51336703     0.98500
C152        C  0.71414008  0.35359491  0.50746434     1.04400
O153        O  0.76589144  0.31592496  0.52297904    -0.78200
C154        C  0.70282391  0.25934175  0.58219918     1.02700
Fe155      Fe  0.67933209  0.39807014  0.26873117     1.65800
Fe156      Fe  0.64991138  0.44710244  0.23332765     1.73200
Fe157      Fe  0.70160086  0.46128552  0.27507604     1.54400
O158        O  0.70010924  0.44291168  0.31241132    -0.81900
O159        O  0.67704747  0.46758202  0.21041168    -0.80200
O160        O  0.67480683  0.40652091  0.30874428    -0.84400
O161        O  0.72021448  0.39872721  0.27326831    -0.79300
O162        O  0.67105122  0.48595119  0.28672709    -0.81000
O163        O  0.65611291  0.41429234  0.20877439    -0.83800
C164        C  0.73897913  0.41513741  0.26954264     0.97000
C165        C  0.68833766  0.42289960  0.32254691     1.04400
O166        O  0.67692158  0.43562148  0.25902460    -1.12800
O167        O  0.61947812  0.42785856  0.25313312    -0.75200
O168        O  0.63894547  0.39016244  0.26414120    -0.78700
O169        O  0.73490752  0.43950982  0.26514388    -0.79400
C170        C  0.61834774  0.40323708  0.25787381     0.95900
O171        O  0.68450828  0.38737430  0.22979825    -0.77300
O172        O  0.64078790  0.48146534  0.25445499    -0.82500
C173        C  0.69647932  0.48241260  0.21660435     0.98500
C174        C  0.65015384  0.49346209  0.27473498     1.04400
O175        O  0.70657453  0.48276737  0.23987126    -0.78200
C176        C  0.67117436  0.39405638  0.20944282     1.02700
Fe177      Fe  0.31313323  0.61144944  0.72353565     1.65800
Fe178      Fe  0.28777530  0.55011858  0.71237938     1.73200
Fe179      Fe  0.33528919  0.55965808  0.75925601     1.54400
O180        O  0.36510905  0.58821350  0.75458769    -0.81900
O181        O  0.27212683  0.53537113  0.74738879    -0.80200
O182        O  0.35386908  0.61186303  0.71937050    -0.84400
O183        O  0.31534686  0.62136071  0.76384845    -0.79300
O184        O  0.35299287  0.53465113  0.73148702    -0.81000
O185        O  0.25647691  0.57747846  0.71120826    -0.83800
C186        C  0.31385562  0.60881521  0.78586094     0.97000
C187        C  0.36987798  0.60668296  0.73808053     1.04400
O188        O  0.31199229  0.57380870  0.73147834    -1.12800
O189        O  0.30026425  0.56305081  0.67520676    -0.75200
O190        O  0.30948672  0.60583930  0.68240685    -0.78700
O191        O  0.31792205  0.58397177  0.78771123    -0.79400
C192        C  0.30475529  0.58641629  0.66682934     0.95900
O193        O  0.27294175  0.61525775  0.72716107    -0.77300
O194        O  0.31649145  0.51985921  0.71127391    -0.82500
C195        C  0.28496192  0.52476684  0.76625188     0.98500
C196        C  0.34112623  0.51739868  0.71714088     1.04400
O197        O  0.30945151  0.52936509  0.77022445    -0.78200
C198        C  0.25384303  0.60163927  0.71813959     1.02700
Fe199      Fe  0.38037548  0.27520422  0.68632454     1.65800
Fe200      Fe  0.42927661  0.23906113  0.65729672     1.73200
Fe201      Fe  0.44444869  0.28458450  0.70569077     1.54400
O202        O  0.42518383  0.32130840  0.70142072    -0.81900
O203        O  0.45203501  0.21936199  0.68526702    -0.80200
O204        O  0.38743723  0.31463131  0.67868167    -0.84400
O205        O  0.38216638  0.28236001  0.72657080    -0.79300
O206        O  0.46887791  0.29370371  0.67376106    -0.81000
O207        O  0.39785861  0.21400800  0.66741745    -0.83800
C208        C  0.39907815  0.28017393  0.74506845     0.97000
C209        C  0.40428456  0.32985551  0.68979822     1.04400
O210        O  0.41824266  0.26639166  0.68289492    -1.12800
O211        O  0.40739245  0.25510126  0.62590103    -0.75200
O212        O  0.37110511  0.26880826  0.64677040    -0.78700
O213        O  0.42360113  0.27679816  0.74043701    -0.79400
C214        C  0.38311009  0.26209728  0.62563444     0.95900
O215        O  0.37095625  0.23667725  0.69468720    -0.77300
O216        O  0.46265474  0.26044971  0.64483909    -0.82500
C217        C  0.46722143  0.22697791  0.70399953     0.98500
C218        C  0.47546521  0.28071131  0.65304102     1.04400
O219        O  0.46686743  0.25056261  0.71301203    -0.78200
C220        C  0.37829800  0.21539547  0.68348378     1.02700
Fe221      Fe  0.60182750  0.73046321  0.31156311     1.65800
Fe222      Fe  0.53956463  0.72116809  0.28677453     1.73200
Fe223      Fe  0.55123813  0.76766148  0.33493102     1.54400
O224        O  0.57850959  0.75999347  0.36531160    -0.81900
O225        O  0.52452864  0.75651370  0.27184485    -0.80200
O226        O  0.60209201  0.72556633  0.35197593    -0.84400
O227        O  0.61373745  0.77014438  0.31374183    -0.79300
O228        O  0.52371734  0.74199830  0.35176675    -0.81000
O229        O  0.56660970  0.71962144  0.25501477    -0.83800
C230        C  0.60204814  0.79255013  0.31376930     0.97000
C231        C  0.59633399  0.74266819  0.36932495     1.04400
O232        O  0.56417151  0.73967569  0.31090437    -1.12800
O233        O  0.55209016  0.68374361  0.29901006    -0.75200
O234        O  0.59493345  0.69017677  0.30856514    -0.78700
O235        O  0.57741428  0.79504621  0.31891261    -0.79400
C236        C  0.57520628  0.67497976  0.30440448     0.95900
O237        O  0.60557342  0.73330108  0.27135281    -0.77300
O238        O  0.50947156  0.72029773  0.31553140    -0.82500
C239        C  0.51621952  0.77660879  0.28467550     0.98500
C240        C  0.50652371  0.72773859  0.33965034     1.04400
O241        O  0.52259011  0.78114198  0.30869614    -0.78200
C242        C  0.59116805  0.72528413  0.25234689     1.02700
Fe243      Fe  0.26654873  0.68753714  0.38661638     1.65800
Fe244      Fe  0.22926331  0.66225742  0.43634054     1.73200
Fe245      Fe  0.27716734  0.70799500  0.44988431     1.54400
O246        O  0.31320752  0.70428857  0.42897922    -0.81900
O247        O  0.21038180  0.69271698  0.45551095    -0.80200
O248        O  0.30549984  0.67798802  0.39410047    -0.84400
O249        O  0.27575926  0.72744691  0.38753808    -0.79300
O250        O  0.28687286  0.67539938  0.47280820    -0.81000
O251        O  0.20514027  0.67044938  0.40356852    -0.83800
C252        C  0.27385064  0.74636757  0.40407903     0.97000
C253        C  0.32123832  0.69140184  0.40859212     1.04400
O254        O  0.25772774  0.68581469  0.42437855    -1.12800
O255        O  0.24500367  0.62953814  0.41727403    -0.75200
O256        O  0.25825268  0.64803646  0.37926524    -0.78700
O257        O  0.26946620  0.74262906  0.42879518    -0.79400
C258        C  0.25138187  0.62797241  0.39283546     0.95900
O259        O  0.22821477  0.69747872  0.37701983    -0.77300
O260        O  0.24942522  0.65155610  0.47131092    -0.82500
C261        C  0.21896512  0.70875713  0.47287749     0.98500
C262        C  0.27169288  0.65740408  0.48204052     1.04400
O263        O  0.24359125  0.71484240  0.47425853    -0.78200
C264        C  0.20669186  0.68614827  0.38378645     1.02700
Fe265      Fe  0.80780082  0.60993148  0.76491876     1.65800
Fe266      Fe  0.83196306  0.56193265  0.72441531     1.73200
Fe267      Fe  0.78806827  0.54653260  0.77438598     1.54400
O268        O  0.79331846  0.56604499  0.81096435    -0.81900
O269        O  0.80187904  0.54057542  0.70673542    -0.80200
O270        O  0.81885432  0.60127991  0.80334943    -0.84400
O271        O  0.76812937  0.60837318  0.77522130    -0.79300
O272        O  0.82115441  0.52327103  0.78163444    -0.81000
O273        O  0.82063232  0.59441415  0.70115603    -0.83800
C274        C  0.74924693  0.59178550  0.77356104     0.97000
C275        C  0.80626182  0.58622201  0.81918667     1.04400
O276        O  0.80938141  0.57265644  0.75447918    -1.12800
O277        O  0.86520365  0.58238852  0.73789067    -0.75200
O278        O  0.84685071  0.61822589  0.75568525    -0.78700
O279        O  0.75299849  0.56735281  0.76877977    -0.79400
C280        C  0.86679049  0.60603185  0.74641513     0.95900
O281        O  0.79667354  0.62114201  0.72743709    -0.77300
O282        O  0.84536707  0.52804389  0.74435295    -0.82500
C283        C  0.78527466  0.52419249  0.71621987     0.98500
C284        C  0.84005577  0.51628998  0.76626205     1.04400
O285        O  0.77926057  0.52352864  0.74086263    -0.78200
C286        C  0.80602423  0.61472458  0.70485655     1.02700
Fe287      Fe  0.88313295  0.28505075  0.81143961     1.65800
Fe288      Fe  0.94698242  0.28846739  0.78922022     1.73200
Fe289      Fe  0.93043818  0.24745457  0.84023600     1.54400
O290        O  0.90220139  0.25910009  0.86840783    -0.81900
O291        O  0.96034345  0.25183471  0.77785320    -0.80200
O292        O  0.88059848  0.29318895  0.85146401    -0.84400
O293        O  0.86897640  0.24606315  0.81613099    -0.79300
O294        O  0.95754452  0.27349233  0.85657337    -0.81000
O295        O  0.92188001  0.28718569  0.75578750    -0.83800
C296        C  0.87969301  0.22310549  0.81860402     0.97000
C297        C  0.88536275  0.27771735  0.87058180     1.04400
O298        O  0.92015546  0.27373965  0.81349264    -1.12800
O299        O  0.93653723  0.32714536  0.79781627    -0.75200
O300        O  0.89297086  0.32475892  0.80569997    -0.78700
O301        O  0.90380168  0.22023502  0.82520616    -0.79400
C302        C  0.91417429  0.33807576  0.80181957     0.95900
O303        O  0.88151206  0.27874544  0.77144071    -0.77300
O304        O  0.97561286  0.29034424  0.81965399    -0.82500
C305        C  0.96782883  0.23290102  0.79246832     0.98500
C306        C  0.97637270  0.28546652  0.84466113     1.04400
O307        O  0.96018278  0.23055375  0.81655251    -0.78200
C308        C  0.89739255  0.28151823  0.75215010     1.02700
Fe309      Fe  0.77869141  0.68818838  0.09864508     1.65800
Fe310      Fe  0.78661151  0.70720171  0.03359146     1.73200
Fe311      Fe  0.73563778  0.66589607  0.05132524     1.54400
O312        O  0.74236152  0.63590932  0.07894763    -0.81900
O313        O  0.75258564  0.72410838  0.01814723    -0.80200
O314        O  0.77645761  0.64773011  0.10447776    -0.84400
O315        O  0.74042281  0.69304778  0.11264214    -0.79300
O316        O  0.75661340  0.64508390  0.02232269    -0.81000
O317        O  0.79130196  0.74104517  0.05689066    -0.83800
C318        C  0.71726676  0.69323388  0.10257910     0.97000
C319        C  0.75836577  0.63143685  0.09797638     1.04400
O320        O  0.76720186  0.68694739  0.06115536    -1.12800
O321        O  0.82326835  0.69312610  0.04583775    -0.75200
O322        O  0.81844050  0.68455870  0.08919090    -0.78700
O323        O  0.71247637  0.68576628  0.07885231    -0.79400
C324        C  0.83281206  0.68735498  0.06853243     0.95900
O325        O  0.78211993  0.72854445  0.09846990    -0.77300
O326        O  0.78420745  0.67618854  0.00648719    -0.82500
C327        C  0.72981056  0.71435168  0.01353970     0.98500
C328        C  0.77307582  0.65354226  0.00491364     1.04400
O329        O  0.72229263  0.69230284  0.02294812    -0.78200
C330        C  0.78843365  0.74602414  0.08154834     1.02700
Fe331      Fe  0.17688494  0.39933061  0.21977766     1.65800
Fe332      Fe  0.19383595  0.46376020  0.21003190     1.73200
Fe333      Fe  0.15342168  0.44615760  0.26143847     1.54400
O334        O  0.12481298  0.41675084  0.25543697    -0.81900
O335        O  0.21209760  0.47846744  0.24387387    -0.80200
O336        O  0.13638706  0.39517520  0.21873934    -0.84400
O337        O  0.17906233  0.38587141  0.25916273    -0.79300
O338        O  0.13106398  0.47225614  0.23915782    -0.81000
O339        O  0.22725648  0.43995358  0.20293582    -0.83800
C340        C  0.18061200  0.39689034  0.28200619     0.97000
C341        C  0.12009160  0.39972398  0.23735118     1.04400
O342        O  0.17481138  0.43645087  0.23031358    -1.12800
O343        O  0.17748973  0.45174625  0.17434511    -0.75200
O344        O  0.17567358  0.40791127  0.17944347    -0.78700
O345        O  0.17480270  0.42108435  0.28562057    -0.79400
C346        C  0.17508786  0.42853191  0.16494340     0.95900
O347        O  0.21745066  0.39990746  0.21905423    -0.77300
O348        O  0.16267785  0.49076783  0.21382538    -0.82500
C349        C  0.20150503  0.48477347  0.26596074     0.98500
C350        C  0.13926260  0.49042962  0.22361448     1.04400
O351        O  0.17870796  0.47650067  0.27302741    -0.78200
C352        C  0.23347181  0.41609090  0.20833849     1.02700
Fe353      Fe  0.10251610  0.72421724  0.18358339     1.65800
Fe354      Fe  0.05778373  0.76370569  0.15290098     1.73200
Fe355      Fe  0.03777703  0.72057935  0.20091865     1.54400
O356        O  0.05532065  0.68301499  0.20059191    -0.81900
O357        O  0.03685027  0.78628662  0.18011897    -0.80200
O358        O  0.09167214  0.68574592  0.17530823    -0.84400
O359        O  0.09803886  0.71754266  0.22417487    -0.79300
O360        O  0.01596669  0.71035196  0.16788966    -0.81000
O361        O  0.09165270  0.78563031  0.16282779    -0.83800
C362        C  0.08072197  0.72334345  0.24166954     0.97000
C363        C  0.07488337  0.67227844  0.18857449     1.04400
O364        O  0.06592444  0.73628997  0.17902531    -1.12800
O365        O  0.07819803  0.74450117  0.12262717    -0.75200
O366        O  0.11384889  0.73022237  0.14413199    -0.78700
O367        O  0.05715027  0.72984338  0.23581130    -0.79400
C368        C  0.10251608  0.73779929  0.12288620     0.95900
O369        O  0.11517728  0.76180008  0.19211091    -0.77300
O370        O  0.02275757  0.74483839  0.14061616    -0.82500
C371        C  0.01922610  0.77958541  0.19692300     0.98500
C372        C  0.00998936  0.72409318  0.14760402     1.04400
O373        O  0.01643759  0.75573209  0.20462893    -0.78200
C374        C  0.11075826  0.78300341  0.17930868     1.02700
Fe375      Fe  0.21652844  0.32557967  0.88875754     1.65800
Fe376      Fe  0.25091019  0.35364250  0.93947744     1.73200
Fe377      Fe  0.20859522  0.30168432  0.95155129     1.54400
O378        O  0.17152630  0.30468620  0.93257608    -0.81900
O379        O  0.27255920  0.32612912  0.96018186    -0.80200
O380        O  0.17657064  0.33031292  0.89645403    -0.84400
O381        O  0.21151037  0.28525216  0.88783102    -0.79300
O382        O  0.19744999  0.33111424  0.97785765    -0.81000
O383        O  0.27676301  0.34706914  0.90764408    -0.83800
C384        C  0.21430157  0.26591892  0.90353916     0.97000
C385        C  0.16214954  0.31685817  0.91235098     1.04400
O386        O  0.22524387  0.32708098  0.92680685    -1.12800
O387        O  0.23266081  0.38477264  0.91987013    -0.75200
O388        O  0.22097719  0.36561210  0.88192671    -0.78700
O389        O  0.21791846  0.26895284  0.92837150    -0.79400
C390        C  0.22675713  0.38606361  0.89534770     0.95900
O391        O  0.25569769  0.32010675  0.87911142    -0.77300
O392        O  0.22865585  0.36250349  0.97330039    -0.82500
C393        C  0.26662560  0.30590926  0.97386743     0.98500
C394        C  0.20881190  0.35234241  0.98534934     1.04400
O395        O  0.24353259  0.29545117  0.97329698    -0.78200
C396        C  0.27644837  0.33187730  0.88736478     1.02700
Fe397      Fe  0.60484769  0.77936109  0.81245890     1.65800
Fe398      Fe  0.55538749  0.74423609  0.84243344     1.73200
Fe399      Fe  0.54115033  0.78722342  0.79191176     1.54400
O400        O  0.56056691  0.82382318  0.79337836    -0.81900
O401        O  0.53341494  0.72266954  0.81527440    -0.80200
O402        O  0.59730926  0.81916755  0.81788591    -0.84400
O403        O  0.60355672  0.78431218  0.77146424    -0.79300
O404        O  0.51738155  0.79874717  0.82350908    -0.81000
O405        O  0.58745237  0.71903849  0.83452073    -0.83800
C406        C  0.58670075  0.78100429  0.75293691     0.97000
C407        C  0.58098857  0.83342244  0.80495307     1.04400
O408        O  0.56700590  0.77022726  0.81567315    -1.12800
O409        O  0.57610159  0.76250915  0.87303444    -0.75200
O410        O  0.61325247  0.77498249  0.85265683    -0.78700
O411        O  0.56214506  0.77732150  0.75765660    -0.79400
C412        C  0.60052996  0.76883120  0.87360229     0.95900
O413        O  0.61493060  0.74042720  0.80669398    -0.77300
O414        O  0.52152575  0.76586798  0.85303735    -0.82500
C415        C  0.51794160  0.72975533  0.79666786     0.98500
C416        C  0.50967087  0.78635655  0.84420513     1.04400
O417        O  0.51820997  0.75309448  0.78710819    -0.78200
C418        C  0.60771551  0.71977786  0.81922743     1.02700
Fe419      Fe  0.26918681  0.82286568  0.88709590     1.65800
Fe420      Fe  0.28076772  0.80239218  0.95061985     1.73200
Fe421      Fe  0.22811737  0.84228358  0.93646623     1.54400
O422        O  0.23324335  0.87233919  0.90805693    -0.81900
O423        O  0.24785159  0.78415359  0.96766985    -0.80200
O424        O  0.27052420  0.86345485  0.88603692    -0.84400
O425        O  0.22956446  0.82275269  0.87438018    -0.79300
O426        O  0.25000254  0.86379756  0.96395872    -0.81000
O427        O  0.28487682  0.76992751  0.92485584    -0.83800
C428        C  0.20718966  0.81856534  0.88550119     0.97000
C429        C  0.25104040  0.87848332  0.89103790     1.04400
O430        O  0.25964310  0.82253057  0.92492642    -1.12800
O431        O  0.31675871  0.81737115  0.93717850    -0.75200
O432        O  0.31001460  0.82234941  0.89362144    -0.78700
O433        O  0.20436119  0.82106255  0.91049786    -0.79400
C434        C  0.32538753  0.82047372  0.91359382     0.95900
O435        O  0.26901682  0.78233587  0.88513064    -0.77300
O436        O  0.27894372  0.83324472  0.97847674    -0.82500
C437        C  0.22562264  0.79373377  0.97473228     0.98500
C438        C  0.26746739  0.85574791  0.98045757     1.04400
O439        O  0.21719744  0.81575864  0.96608642    -0.78200
C440        C  0.27902290  0.76512728  0.90055062     1.02700
Fe441      Fe  0.68107852  0.11176085  0.77026730     1.65800
Fe442      Fe  0.69841734  0.04718471  0.78077359     1.73200
Fe443      Fe  0.65504491  0.06350952  0.73126480     1.54400
O444        O  0.62633220  0.09236561  0.73884709    -0.81900
O445        O  0.71338408  0.02978944  0.74654223    -0.80200
O446        O  0.64028287  0.11746505  0.77261163    -0.84400
O447        O  0.68013607  0.12407668  0.73133080    -0.79300
O448        O  0.63436683  0.03674916  0.75494404    -0.81000
O449        O  0.73312593  0.06983481  0.78209013    -0.83800
C450        C  0.67955703  0.11340092  0.70855063     0.97000
C451        C  0.62283551  0.11119332  0.75535873     1.04400
O452        O  0.67798257  0.07406418  0.76107632    -1.12800
O453        O  0.68636902  0.06169529  0.81783465    -0.75200
O454        O  0.68230653  0.10512772  0.81071562    -0.78700
O455        O  0.67451467  0.08893216  0.70554861    -0.79400
C456        C  0.68367005  0.08536334  0.82619221     0.95900
O457        O  0.72222303  0.11016691  0.76793568    -0.77300
O458        O  0.66654065  0.02065469  0.78079115    -0.82500
C459        C  0.70230896  0.02425619  0.72453935     0.98500
C460        C  0.64315083  0.01933825  0.77101638     1.04400
O461        O  0.67998569  0.03371997  0.71778751    -0.78200
C462        C  0.73951916  0.09315211  0.77489227     1.02700
Fe463      Fe  0.38542136  0.23257085  0.17580931     1.65800
Fe464      Fe  0.44827113  0.22424558  0.19911126     1.73200
Fe465      Fe  0.43468628  0.27142959  0.15295799     1.54400
O466        O  0.40645514  0.26476595  0.12346419    -0.81900
O467        O  0.46292645  0.25937174  0.21479254    -0.80200
O468        O  0.38439812  0.22854604  0.13502488    -0.84400
O469        O  0.37291709  0.27210511  0.17419328    -0.79300
O470        O  0.46093159  0.24639331  0.13384519    -0.81000
O471        O  0.42187559  0.22109331  0.23140245    -0.83800
C472        C  0.38438382  0.29463269  0.17600492     0.97000
C473        C  0.38952933  0.24676350  0.11852395     1.04400
O474        O  0.42281647  0.24251638  0.17607857    -1.12800
O475        O  0.43648565  0.18703715  0.18635841    -0.75200
O476        O  0.39308196  0.19219516  0.17863328    -0.78700
O477        O  0.40916494  0.29755564  0.17175680    -0.79400
C478        C  0.41336145  0.17765019  0.18237547     0.95900
O479        O  0.38278676  0.23521815  0.21626228    -0.77300
O480        O  0.47728224  0.22487233  0.16915345    -0.82500
C481        C  0.47167804  0.27912019  0.20181214     0.98500
C482        C  0.47873013  0.23218471  0.14479594     1.04400
O483        O  0.46476828  0.28388470  0.17804307    -0.78200
C484        C  0.39735519  0.22651959  0.23483138     1.02700
Fe485      Fe  0.71993318  0.19092193  0.10139090     1.65800
Fe486      Fe  0.75573421  0.16572864  0.04957353     1.73200
Fe487      Fe  0.70871739  0.21325873  0.03863580     1.54400
O488        O  0.67284641  0.20950751  0.05925320    -0.81900
O489        O  0.77442923  0.19514202  0.02779110    -0.80200
O490        O  0.67984124  0.18447894  0.09514354    -0.84400
O491        O  0.71361803  0.23131972  0.10153066    -0.79300
O492        O  0.69785616  0.18183723  0.01487563    -0.81000
O493        O  0.78179965  0.17426605  0.08085985    -0.83800
C494        C  0.71491043  0.25025989  0.08497842     0.97000
C495        C  0.66444582  0.19731256  0.07981087     1.04400
O496        O  0.72816063  0.18983816  0.06315162    -1.12800
O497        O  0.74106020  0.13314447  0.07004568    -0.75200
O498        O  0.72575518  0.15080501  0.10764435    -0.78700
O499        O  0.71774227  0.24672927  0.06015303    -0.79400
C500        C  0.73371464  0.13105449  0.09417822     0.95900
O501        O  0.75898433  0.19776991  0.11100858    -0.77300
O502        O  0.73280362  0.15458934  0.01664553    -0.82500
C503        C  0.76574365  0.21423826  0.01391877     0.98500
C504        C  0.71075769  0.16190217  0.00649041     1.04400
O505        O  0.74158709  0.22151688  0.01467769    -0.78200
C506        C  0.78041087  0.18763057  0.10238798     1.02700
Fe507      Fe  0.31547865  0.89857778  0.21742197     1.65800
Fe508      Fe  0.33831400  0.94773802  0.25747411     1.73200
Fe509      Fe  0.29201122  0.96070968  0.20957240     1.54400
O510        O  0.29618580  0.94171885  0.17277484    -0.81900
O511        O  0.30795295  0.96741888  0.27659330    -0.80200
O512        O  0.32436504  0.90829518  0.17841260    -0.84400
O513        O  0.27554032  0.89802530  0.20860350    -0.79300
O514        O  0.32386692  0.98499880  0.20051425    -0.81000
O515        O  0.32936064  0.91458441  0.28116096    -0.83800
C516        C  0.25587973  0.91333275  0.21175813     0.97000
C517        C  0.31012694  0.92281690  0.16348134     1.04400
O518        O  0.31533767  0.93577129  0.22829514    -1.12800
O519        O  0.37196606  0.92930767  0.24226711    -0.75200
O520        O  0.35524067  0.89232546  0.22520198    -0.78700
O521        O  0.25840874  0.93786527  0.21710045    -0.79400
C522        C  0.37468382  0.90567480  0.23402840     0.95900
O523        O  0.30628746  0.88647143  0.25546843    -0.77300
O524        O  0.34897857  0.98256080  0.23722275    -0.82500
C525        C  0.29098034  0.98364756  0.26767726     0.98500
C526        C  0.34238003  0.99381631  0.21539711     1.04400
O527        O  0.28409264  0.98388720  0.24327573    -0.78200
C528        C  0.31560987  0.89350902  0.27793861     1.02700
C529        C  0.40914007  0.14867887  0.18466291     0.01100
C530        C  0.41133412  0.13662086  0.20995155     0.03900
C531        C  0.40174001  0.11069445  0.21400745    -0.12100
C532        C  0.39180470  0.09579693  0.19234347     0.23200
C533        C  0.39184205  0.10710262  0.16655266    -0.12700
C534        C  0.39973416  0.13372197  0.16288720     0.04700
C535        C  0.37956011  0.06915864  0.19703532     0.27100
C536        C  0.39545136  0.04698458  0.20329085    -0.13400
C537        C  0.38351672  0.02220789  0.20887955     0.05200
C538        C  0.35554981  0.01924987  0.20779354    -0.09300
C539        C  0.33974838  0.04143430  0.20088991     0.06000
C540        C  0.35167305  0.06626512  0.19604791    -0.13700
Br541      Br  0.38026552  0.08631692  0.13639798    -0.05800
Br542      Br  0.42632217  0.15603516  0.23956662    -0.00200
Br543      Br  0.40573852  0.99218023  0.21707621     0.00300
Br544      Br  0.32955685  0.09684618  0.18937183    -0.04100
Br545      Br  0.39771191  0.14984316  0.12811761     0.00400
Br546      Br  0.40035015  0.09644741  0.24971129    -0.03400
Br547      Br  0.43365872  0.05072605  0.20453550    -0.04300
Br548      Br  0.30139021  0.03870426  0.19936856    -0.00300
C549        C  0.50289453  0.22479589  0.12931698     0.01100
C550        C  0.51384015  0.19911715  0.13184383     0.03900
C551        C  0.53916966  0.19349893  0.12123468    -0.12100
C552        C  0.55354846  0.21324564  0.10757809     0.23200
C553        C  0.54180301  0.23812058  0.10302317    -0.12700
C554        C  0.51670897  0.24407228  0.11405837     0.04700
C555        C  0.58187701  0.20868884  0.10022409     0.27100
C556        C  0.60204824  0.21548353  0.11848853    -0.13400
C557        C  0.62894278  0.21115568  0.11199528     0.05200
C558        C  0.63592867  0.19989189  0.08711109    -0.09300
C559        C  0.61568166  0.19348351  0.06867200     0.06000
C560        C  0.58873685  0.19789661  0.07523024    -0.13700
Br561      Br  0.56080310  0.26433020  0.08239449    -0.05800
Br562      Br  0.49409100  0.17128808  0.14945836    -0.00200
Br563      Br  0.65614880  0.22259547  0.13666425     0.00300
Br564      Br  0.56108657  0.18982665  0.04987413    -0.04100
Br565      Br  0.50285194  0.27951708  0.10991411     0.00400
Br566      Br  0.55471196  0.15892855  0.12602605    -0.03400
Br567      Br  0.59268635  0.23162186  0.15217815    -0.04300
Br568      Br  0.62477593  0.17819589  0.03461653    -0.00300
C569        C  0.68440720  0.09103814  0.85512668     0.01100
C570        C  0.70727447  0.10332108  0.86577475     0.03900
C571        C  0.70829666  0.11042637  0.89276770    -0.12100
C572        C  0.68553296  0.10774208  0.90892032     0.23200
C573        C  0.66241722  0.09569527  0.89839976    -0.12700
C574        C  0.66200711  0.08698090  0.87157289     0.04700
C575        C  0.68570239  0.12084830  0.93552058     0.27100
C576        C  0.69129969  0.10633722  0.95883264    -0.13400
C577        C  0.69778501  0.11974783  0.98268643     0.05200
C578        C  0.70028097  0.14763425  0.98283873    -0.09300
C579        C  0.69368457  0.16210189  0.95965583     0.06000
C580        C  0.68520996  0.14875289  0.93656190    -0.13700
Br581      Br  0.63112718  0.09231932  0.92033010    -0.05800
Br582      Br  0.73646519  0.11305291  0.84295527    -0.00200
Br583      Br  0.70283549  0.09998154  0.01515788     0.00300
Br584      Br  0.67447598  0.16865392  0.90551075    -0.04100
Br585      Br  0.63009423  0.07197098  0.85654360     0.00400
Br586      Br  0.74078854  0.12496118  0.90748196    -0.03400
Br587      Br  0.69137782  0.06817349  0.95762969    -0.04300
Br588      Br  0.69940801  0.19997582  0.95803334    -0.00300
C589        C  0.27422135  0.87261047  0.00375619     0.01100
C590        C  0.30085937  0.88000286  0.00848700     0.03900
C591        C  0.30837325  0.89045467  0.03346582    -0.12100
C592        C  0.28885886  0.89594830  0.05291966     0.23200
C593        C  0.26179026  0.89174537  0.04680398    -0.12700
C594        C  0.25456728  0.87898632  0.02285624     0.04700
C595        C  0.29662377  0.90297606  0.08076553     0.27100
C596        C  0.29555525  0.88327188  0.10062771    -0.13400
C597        C  0.30054525  0.88974966  0.12745300     0.05200
C598        C  0.30751823  0.91597239  0.13471962    -0.09300
C599        C  0.30892015  0.93569242  0.11471625     0.06000
C600        C  0.30348042  0.92917854  0.08783490    -0.13700
Br601      Br  0.23478605  0.90242128  0.07200455    -0.05800
Br602      Br  0.32677463  0.87648490  0.98033868    -0.00200
Br603      Br  0.29461272  0.86298095  0.15438033     0.00300
Br604      Br  0.30451771  0.95622853  0.06071557    -0.04100
Br605      Br  0.21817214  0.86786286  0.01771673     0.00400
Br606      Br  0.34548391  0.89544642  0.04166511    -0.03400
Br607      Br  0.28621531  0.84730577  0.09108344    -0.04300
Br608      Br  0.31806724  0.97171373  0.12400106    -0.00300
C609        C  0.58687134  0.86203545  0.80150573     0.01100
C610        C  0.61103020  0.86985610  0.78936263     0.03900
C611        C  0.61570671  0.89668833  0.78329550    -0.12100
C612        C  0.59707819  0.91618347  0.79073396     0.23200
C613        C  0.57315162  0.90851178  0.80329042    -0.12700
C614        C  0.56782857  0.88146456  0.80821106     0.04700
C615        C  0.60399136  0.94471743  0.78710495     0.27100
C616        C  0.61689921  0.95843302  0.80781773    -0.13400
C617        C  0.62844906  0.98347405  0.80311181     0.05200
C618        C  0.62641898  0.99558478  0.77767052    -0.09300
C619        C  0.61076227  0.98285510  0.75776575     0.06000
C620        C  0.60013308  0.95731075  0.76238683    -0.13700
Br621      Br  0.54795701  0.93519265  0.81405925    -0.05800
Br622      Br  0.63780199  0.84388470  0.78041896    -0.00200
Br623      Br  0.64701995  0.00074040  0.83203087     0.00300
Br624      Br  0.58133402  0.93873411  0.73444104    -0.04100
Br625      Br  0.53500142  0.87113753  0.82529475     0.00400
Br626      Br  0.64756936  0.90678240  0.76426216    -0.03400
Br627      Br  0.61931471  0.94223541  0.84259772    -0.04300
Br628      Br  0.60473921  0.99898527  0.72335647    -0.00300
C629        C  0.48434235  0.79486325  0.85694509     0.01100
C630        C  0.48291963  0.80158140  0.88427007     0.03900
C631        C  0.45826238  0.80872116  0.89583501    -0.12100
C632        C  0.43486484  0.80868755  0.88029680     0.23200
C633        C  0.43627970  0.80172849  0.85313361    -0.12700
C634        C  0.46081560  0.79491543  0.84150656     0.04700
C635        C  0.40823945  0.81329838  0.89265291     0.27100
C636        C  0.39431483  0.79175245  0.90382507    -0.13400
C637        C  0.36776231  0.79478250  0.91221400     0.05200
C638        C  0.35449361  0.81918910  0.90866588    -0.09300
C639        C  0.36850027  0.84086770  0.89772388     0.06000
C640        C  0.39550355  0.83809167  0.89034299    -0.13700
Br641      Br  0.40410253  0.80011698  0.83215584    -0.05800
Br642      Br  0.51461977  0.80093731  0.90585422    -0.00200
Br643      Br  0.34900274  0.76453530  0.92644286     0.00300
Br644      Br  0.41496496  0.86789076  0.87622032    -0.04100
Br645      Br  0.46152424  0.78336104  0.80476948     0.00400
Br646      Br  0.45619285  0.81797105  0.93308663    -0.03400
Br647      Br  0.41113745  0.75743848  0.90573162    -0.04300
Br648      Br  0.35044226  0.87405145  0.89216256    -0.00300
C649        C  0.28749267  0.29493648  0.99181661     0.01100
C650        C  0.30346195  0.31237017  0.00732659     0.03900
C651        C  0.32268074  0.30219114  0.02490667    -0.12100
C652        C  0.32600819  0.27466878  0.02749340     0.23200
C653        C  0.31114842  0.25727713  0.01134449    -0.12700
C654        C  0.29174503  0.26728260  0.99374745     0.04700
C655        C  0.34223944  0.26423674  0.04985930     0.27100
C656        C  0.36947911  0.25848276  0.04653939    -0.13400
C657        C  0.38504207  0.25135676  0.06880049     0.05200
C658        C  0.37315378  0.24915756  0.09421203    -0.09300
C659        C  0.34554163  0.25338285  0.09708252     0.06000
C660        C  0.33039292  0.26177843  0.07519453    -0.13700
Br661      Br  0.31748925  0.21967234  0.01368199    -0.05800
Br662      Br  0.29788440  0.35028660  0.00680469    -0.00200
Br663      Br  0.42255941  0.24454652  0.06459189     0.00300
Br664      Br  0.29385571  0.27241278  0.08043990    -0.04100
Br665      Br  0.27133519  0.24281952  0.97233064     0.00400
Br666      Br  0.34395100  0.32583696  0.04657651    -0.03400
Br667      Br  0.38556677  0.26178663  0.01179890    -0.04300
Br668      Br  0.32843054  0.24959100  0.13140479    -0.00300
C669        C  0.12950016  0.80506571  0.18298476     0.01100
C670        C  0.12127911  0.82870626  0.19538631     0.03900
C671        C  0.13976250  0.84925122  0.19969623    -0.12100
C672        C  0.16658407  0.84584284  0.19225373     0.23200
C673        C  0.17470492  0.82223288  0.17959424    -0.12700
C674        C  0.15611722  0.80200939  0.17469607     0.04700
C675        C  0.18659291  0.86658338  0.19838266     0.27100
C676        C  0.19631487  0.88302723  0.17787964    -0.13400
C677        C  0.21824063  0.89971707  0.18267375     0.05200
C678        C  0.22950274  0.90116955  0.20838925    -0.09300
C679        C  0.21899197  0.88556350  0.22916846     0.06000
C680        C  0.19775257  0.86807459  0.22412176    -0.13700
Br681      Br  0.21143189  0.81739274  0.16931195    -0.05800
Br682      Br  0.08511294  0.83225757  0.20775089    -0.00200
Br683      Br  0.23484236  0.91797060  0.15324371     0.00300
Br684      Br  0.18539562  0.84452113  0.25182847    -0.04100
Br685      Br  0.16704880  0.77027121  0.15610081     0.00400
Br686      Br  0.12853325  0.88202091  0.21589851    -0.03400
Br687      Br  0.18064458  0.88121372  0.14277615    -0.04300
Br688      Br  0.23544066  0.88638151  0.26391815    -0.00300
C689        C  0.11908730  0.74172241  0.09847124     0.01100
C690        C  0.11881959  0.76670768  0.08557542     0.03900
C691        C  0.13688176  0.77229121  0.06483191    -0.12100
C692        C  0.15525775  0.75302791  0.05637676     0.23200
C693        C  0.15541703  0.72796720  0.06877616    -0.12700
C694        C  0.13770279  0.72242485  0.09000832     0.04700
C695        C  0.17480756  0.75981641  0.03497302     0.27100
C696        C  0.16705975  0.75901278  0.00796177    -0.13400
C697        C  0.18390342  0.76949291  0.98803733     0.05200
C698        C  0.20920584  0.77960224  0.99483384    -0.09300
C699        C  0.21759465  0.77890481  0.02167747     0.06000
C700        C  0.20020052  0.76969759  0.04174439    -0.13700
Br701      Br  0.18025791  0.70146618  0.05669595    -0.05800
Br702      Br  0.09555901  0.79469675  0.09768433    -0.00200
Br703      Br  0.17205891  0.77060709  0.95149970     0.00300
Br704      Br  0.21030600  0.77248083  0.07875401    -0.04100
Br705      Br  0.13919606  0.68838892  0.10742820     0.00400
Br706      Br  0.13741468  0.80701198  0.04862913    -0.03400
Br707      Br  0.13283653  0.74441243  0.99857229    -0.04300
Br708      Br  0.25230239  0.79229701  0.03123389    -0.00300
C709        C  0.19980883  0.36478426  0.01038468     0.01100
C710        C  0.18175504  0.38605214  0.01015613     0.03900
C711        C  0.17526335  0.39915080  0.03413212    -0.12100
C712        C  0.18648148  0.39062490  0.05839541     0.23200
C713        C  0.20318557  0.36825327  0.05877100    -0.12700
C714        C  0.20988262  0.35540830  0.03483181     0.04700
C715        C  0.18059622  0.40466405  0.08374695     0.27100
C716        C  0.19904078  0.42303634  0.09416883    -0.13400
C717        C  0.19526919  0.43368125  0.11983107     0.05200
C718        C  0.17390311  0.42469369  0.13577436    -0.09300
C719        C  0.15451994  0.40776279  0.12464486     0.06000
C720        C  0.15777813  0.39789751  0.09859602    -0.13700
Br721      Br  0.21655733  0.35496384  0.09223521    -0.05800
Br722      Br  0.16518309  0.39634758  0.97719158    -0.00200
Br723      Br  0.22061161  0.45908688  0.13363519     0.00300
Br724      Br  0.13206104  0.37355613  0.08387918    -0.04100
Br725      Br  0.23253742  0.32460947  0.03567272     0.00400
Br726      Br  0.15083520  0.42851569  0.03393868    -0.03400
Br727      Br  0.23081176  0.43167213  0.07431426    -0.04300
Br728      Br  0.12359901  0.39802461  0.14525299    -0.00300
C729        C  0.07941086  0.64339931  0.19186184     0.01100
C730        C  0.05829804  0.62494830  0.18942680     0.03900
C731        C  0.06271196  0.59781230  0.19468949    -0.12100
C732        C  0.08847020  0.58887552  0.20107217     0.23200
C733        C  0.10957549  0.60716963  0.20298545    -0.12700
C734        C  0.10493596  0.63433363  0.19935640     0.04700
C735        C  0.09417482  0.56052574  0.20661603     0.27100
C736        C  0.09808789  0.55250462  0.23321446    -0.13400
C737        C  0.11267893  0.52941334  0.23876445     0.05200
C738        C  0.12146625  0.51299713  0.21773746    -0.09300
C739        C  0.11518565  0.51970786  0.19115675     0.06000
C740        C  0.10191631  0.54365081  0.18559913    -0.13700
Br741      Br  0.14507334  0.59483427  0.21111861    -0.05800
Br742      Br  0.02352874  0.63656869  0.17813907    -0.00200
Br743      Br  0.12432462  0.52280892  0.27481221     0.00300
Br744      Br  0.09624766  0.55455620  0.14920028    -0.04100
Br745      Br  0.13330987  0.65898076  0.20744129     0.00400
Br746      Br  0.03350474  0.57300226  0.19394938    -0.03400
Br747      Br  0.08552860  0.57468287  0.26194101    -0.04300
Br748      Br  0.12577607  0.49673550  0.16228338    -0.00300
C749        C  0.25970660  0.40547359  0.20054504     0.01100
C750        C  0.26061979  0.38412483  0.18234044     0.03900
C751        C  0.28444943  0.37025227  0.17820942    -0.12100
C752        C  0.30753407  0.37749157  0.19238395     0.23200
C753        C  0.30708800  0.39982906  0.20932736    -0.12700
C754        C  0.28319046  0.41395464  0.21326208     0.04700
C755        C  0.33087836  0.35946769  0.19159094     0.27100
C756        C  0.33146332  0.33758060  0.20889324    -0.13400
C757        C  0.34937753  0.31669462  0.20427198     0.05200
C758        C  0.36784740  0.31814459  0.18296605    -0.09300
C759        C  0.36934331  0.34175400  0.16774835     0.06000
C760        C  0.35049621  0.36208712  0.17172696    -0.13700
Br761      Br  0.33878733  0.40983944  0.22836168    -0.05800
Br762      Br  0.22890255  0.37326432  0.16351695    -0.00200
Br763      Br  0.34846631  0.28644506  0.22771886     0.00300
Br764      Br  0.35082210  0.39329054  0.14958286    -0.04100
Br765      Br  0.28204041  0.44357849  0.23749711     0.00400
Br766      Br  0.28510576  0.34017931  0.15428930    -0.03400
Br767      Br  0.30726508  0.33632978  0.23883817    -0.04300
Br768      Br  0.39613478  0.34609956  0.14051038    -0.00300
C769        C  0.86207933  0.68620553  0.07216812     0.01100
C770        C  0.87818886  0.70746440  0.06314639     0.03900
C771        C  0.90392197  0.71097229  0.07359284    -0.12100
C772        C  0.91372647  0.69340519  0.09297480     0.23200
C773        C  0.89870520  0.67093424  0.10020683    -0.12700
C774        C  0.87315845  0.66704059  0.08936178     0.04700
C775        C  0.93862198  0.70019324  0.10736510     0.27100
C776        C  0.96338047  0.69043240  0.09858427    -0.13400
C777        C  0.98698028  0.69839022  0.11152675     0.05200
C778        C  0.98583533  0.71653185  0.13284048    -0.09300
C779        C  0.96108346  0.72641431  0.14144586     0.06000
C780        C  0.93754699  0.71804040  0.12896375    -0.13700
Br781      Br  0.91231519  0.64667229  0.12650536    -0.05800
Br782      Br  0.86470173  0.73351827  0.03845369    -0.00200
Br783      Br  0.02086776  0.68463097  0.10020563     0.00300
Br784      Br  0.90374952  0.73116122  0.14144817    -0.04100
Br785      Br  0.85325101  0.63541869  0.09798749     0.00400
Br786      Br  0.92514471  0.74121515  0.06317609    -0.03400
Br787      Br  0.96478131  0.66655515  0.06862780    -0.04300
Br788      Br  0.95928560  0.75164581  0.17031765    -0.00300
C789        C  0.61568175  0.76626736  0.89893206     0.01100
C790        C  0.63376728  0.78618018  0.90718476     0.03900
C791        C  0.65111387  0.78155452  0.92880358    -0.12100
C792        C  0.65188441  0.75644067  0.94100006     0.23200
C793        C  0.63360134  0.73674591  0.93318501    -0.12700
C794        C  0.61515298  0.74179039  0.91273655     0.04700
C795        C  0.67331597  0.74957641  0.96025424     0.27100
C796        C  0.69811994  0.74070557  0.95057595    -0.13400
C797        C  0.71703819  0.73009168  0.96823215     0.05200
C798        C  0.71137524  0.72854351  0.99570700    -0.09300
C799        C  0.68700583  0.73830715  0.00556035     0.06000
C800        C  0.66804591  0.74889751  0.98786882    -0.13700
Br801      Br  0.63515341  0.70205965  0.94940862    -0.05800
Br802      Br  0.63555290  0.81949997  0.88843675    -0.00200
Br803      Br  0.74973472  0.71538448  0.95447021     0.00300
Br804      Br  0.63438394  0.76150031  0.00118372    -0.04100
Br805      Br  0.59117064  0.71370752  0.90213484     0.00400
Br806      Br  0.67423898  0.80931123  0.94162045    -0.03400
Br807      Br  0.70556880  0.74167491  0.91284481    -0.04300
Br808      Br  0.67946190  0.73663007  0.04326378    -0.00300
C809        C  0.00085659  0.29266019  0.85998793     0.01100
C810        C  0.01521230  0.31602685  0.85368360     0.03900
C811        C  0.04072646  0.32037693  0.86447341    -0.12100
C812        C  0.05190305  0.30190409  0.88218396     0.23200
C813        C  0.03708048  0.27955458  0.89001113    -0.12700
C814        C  0.01157950  0.27494885  0.87922430     0.04700
C815        C  0.07999915  0.30506614  0.89095922     0.27100
C816        C  0.10050472  0.29410568  0.87536398    -0.13400
C817        C  0.12723818  0.29885113  0.88203773     0.05200
C818        C  0.13374727  0.31312356  0.90540824    -0.09300
C819        C  0.11317797  0.32281374  0.92187386     0.06000
C820        C  0.08635070  0.31947255  0.91422156    -0.13700
Br821      Br  0.05267854  0.25443223  0.91442914    -0.05800
Br822      Br  0.99977990  0.34288639  0.83112042    -0.00200
Br823      Br  0.15487828  0.28528572  0.85907528     0.00300
Br824      Br  0.05819335  0.33486284  0.93521754    -0.04100
Br825      Br  0.99279761  0.24318846  0.89006737     0.00400
Br826      Br  0.06114322  0.35116115  0.85417135    -0.03400
Br827      Br  0.09184494  0.27207773  0.84505086    -0.04300
Br828      Br  0.12168736  0.34107719  0.95449891    -0.00300
C829        C  0.76793782  0.10194371  0.77587562     0.01100
C830        C  0.78479843  0.09547368  0.79748483     0.03900
C831        C  0.80633795  0.11234940  0.80387393    -0.12100
C832        C  0.81153386  0.13492972  0.78816437     0.23200
C833        C  0.79816911  0.13789406  0.76367764    -0.12700
C834        C  0.77702910  0.12074301  0.75719802     0.04700
C835        C  0.82992050  0.15607438  0.79784489     0.27100
C836        C  0.82029025  0.17587995  0.81517800    -0.13400
C837        C  0.83683432  0.19716537  0.82285168     0.05200
C838        C  0.86312933  0.19905390  0.81308539    -0.09300
C839        C  0.87336402  0.17790035  0.79740758     0.06000
C840        C  0.85667819  0.15669527  0.78970466    -0.13700
Br841      Br  0.80814168  0.16587729  0.73948394    -0.05800
Br842      Br  0.77925287  0.06361490  0.81800896    -0.00200
Br843      Br  0.82379041  0.22249541  0.84855729     0.00300
Br844      Br  0.87034051  0.12826638  0.76789533    -0.04100
Br845      Br  0.76247202  0.12043857  0.72173376     0.00400
Br846      Br  0.82828994  0.10526380  0.83450469    -0.03400
Br847      Br  0.78432690  0.17360730  0.82854185    -0.04300
Br848      Br  0.90996804  0.17759465  0.78594131    -0.00300
C849        C  0.86928909  0.27974777  0.89546986     0.01100
C850        C  0.84127615  0.28284420  0.89402739     0.03900
C851        C  0.82528308  0.27609459  0.91607711    -0.12100
C852        C  0.83704378  0.26720802  0.93987826     0.23200
C853        C  0.86493992  0.26805309  0.94259805    -0.12700
C854        C  0.88104976  0.27439259  0.92044472     0.04700
C855        C  0.82015102  0.25382156  0.96027879     0.27100
C856        C  0.80676880  0.26847869  0.98008730    -0.13400
C857        C  0.78894765  0.25566130  0.99768994     0.05200
C858        C  0.78447097  0.22805106  0.99559322    -0.09300
C859        C  0.79779239  0.21351557  0.97556104     0.06000
C860        C  0.81554993  0.22633842  0.95804877    -0.13700
Br861      Br  0.88097675  0.25933129  0.97631335    -0.05800
Br862      Br  0.82397570  0.29459895  0.86173421    -0.00200
Br863      Br  0.77090903  0.27598585  0.02477827     0.00300
Br864      Br  0.83275536  0.20650480  0.92994314    -0.04100
Br865      Br  0.91921679  0.27630904  0.92434919     0.00400
Br866      Br  0.78699113  0.27689340  0.91316408    -0.03400
Br867      Br  0.81238598  0.30623226  0.98239136    -0.04300
Br868      Br  0.79017126  0.17632070  0.97060058    -0.00300
C869        C  0.80462981  0.59377596  0.84783818     0.01100
C870        C  0.80703232  0.57454297  0.86814409     0.03900
C871        C  0.80167079  0.58133145  0.89493664    -0.12100
C872        C  0.79561594  0.60771860  0.90185228     0.23200
C873        C  0.79449985  0.62720812  0.88182996    -0.12700
C874        C  0.79813323  0.62020510  0.85490402     0.04700
C875        C  0.78997005  0.61531650  0.93002373     0.27100
C876        C  0.76345298  0.61784458  0.93879843    -0.13400
C877        C  0.75785656  0.62912523  0.96392862     0.05200
C878        C  0.77885762  0.63734408  0.98080663    -0.09300
C879        C  0.80544796  0.63339009  0.97250628     0.06000
C880        C  0.81094707  0.62270293  0.94710408    -0.13700
Br881      Br  0.78734656  0.66361156  0.89144162    -0.05800
Br882      Br  0.81886787  0.53921081  0.85952959    -0.00200
Br883      Br  0.72133749  0.63595433  0.97365385     0.00300
Br884      Br  0.84720950  0.61968104  0.93485668    -0.04100
Br885      Br  0.79172318  0.64679172  0.82792417     0.00400
Br886      Br  0.80159928  0.55440171  0.92213442    -0.03400
Br887      Br  0.73478794  0.60727206  0.91546364    -0.04300
Br888      Br  0.83450999  0.64292296  0.99578295    -0.00300
C889        C  0.85559367  0.49241278  0.77343029     0.01100
C890        C  0.84623703  0.46718582  0.76564062     0.03900
C891        C  0.86114840  0.44436246  0.77133898    -0.12100
C892        C  0.88468648  0.44628027  0.78644310     0.23200
C893        C  0.89369654  0.47137529  0.79506517    -0.12700
C894        C  0.87938380  0.49446347  0.78816644     0.04700
C895        C  0.89840666  0.42135418  0.79432978     0.27100
C896        C  0.88953597  0.40737823  0.81695435    -0.13400
C897        C  0.89709800  0.38081621  0.82082139     0.05200
C898        C  0.91226864  0.36752563  0.80125179    -0.09300
C899        C  0.92329562  0.38233555  0.77992342     0.06000
C900        C  0.91676766  0.40935946  0.77687581    -0.13700
Br901      Br  0.92518907  0.47389257  0.81675641    -0.05800
Br902      Br  0.81211790  0.46345289  0.74858499    -0.00200
Br903      Br  0.88720312  0.36283391  0.85328860     0.00300
Br904      Br  0.93167916  0.42977364  0.74797694    -0.04100
Br905      Br  0.89165446  0.52884576  0.79960529     0.00400
Br906      Br  0.84915625  0.41013454  0.75871799    -0.03400
Br907      Br  0.86539102  0.42416047  0.84159302    -0.04300
Br908      Br  0.94540338  0.36553294  0.75336754    -0.00300
C909        C  0.72231600  0.60215420  0.77847836     0.01100
C910        C  0.71143718  0.62042937  0.76034839     0.03900
C911        C  0.69061302  0.63721518  0.76837060    -0.12100
C912        C  0.67959479  0.63478719  0.79413680     0.23200
C913        C  0.68886122  0.61480341  0.81141434    -0.12700
C914        C  0.71060832  0.59891267  0.80382321     0.04700
C915        C  0.65989191  0.65465080  0.80357399     0.27100
C916        C  0.66837823  0.67601033  0.81967074    -0.13400
C917        C  0.65038879  0.69614524  0.82667784     0.05200
C918        C  0.62439015  0.69597201  0.81623202    -0.09300
C919        C  0.61564178  0.67435876  0.80074671     0.06000
C920        C  0.63322522  0.65342136  0.79491302    -0.13700
Br921      Br  0.67271427  0.61031054  0.84601720    -0.05800
Br922      Br  0.72587974  0.62297840  0.72477994    -0.00200
Br923      Br  0.66118951  0.72398063  0.85082380     0.00300
Br924      Br  0.62125964  0.62354600  0.77412847    -0.04100
Br925      Br  0.72604894  0.57456453  0.82904594     0.00400
Br926      Br  0.67875143  0.66506476  0.74489336    -0.03400
Br927      Br  0.70512292  0.67874215  0.83055959    -0.04300
Br928      Br  0.58018148  0.67437187  0.78614172    -0.00300
C929        C  0.08858123  0.72109789  0.26973990     0.01100
C930        C  0.10332265  0.74158946  0.28178971     0.03900
C931        C  0.11746648  0.73657587  0.30541652    -0.12100
C932        C  0.11707872  0.71098341  0.31663907     0.23200
C933        C  0.09973675  0.69155294  0.30636029    -0.12700
C934        C  0.08556425  0.69657535  0.28277411     0.04700
C935        C  0.13894428  0.70295786  0.33464167     0.27100
C936        C  0.16247585  0.69289394  0.32324171    -0.13400
C937        C  0.18432636  0.68681899  0.33947508     0.05200
C938        C  0.18283554  0.69085008  0.36728925    -0.09300
C939        C  0.15884174  0.69989347  0.37884362     0.06000
C940        C  0.13690647  0.70594934  0.36246670    -0.13700
Br941      Br  0.09753790  0.65730815  0.32321702    -0.05800
Br942      Br  0.10575379  0.77573114  0.26470159    -0.00200
Br943      Br  0.21597111  0.67201189  0.32344876     0.00300
Br944      Br  0.10415896  0.71861487  0.37785732    -0.04100
Br945      Br  0.06415231  0.66903519  0.26682705     0.00400
Br946      Br  0.13927211  0.76389841  0.32118118    -0.03400
Br947      Br  0.16477437  0.68759815  0.28510579    -0.04300
Br948      Br  0.15626693  0.70529208  0.41684289    -0.00300
C949        C  0.21555491  0.50305352  0.28419056     0.01100
C950        C  0.22039080  0.52948575  0.27639012     0.03900
C951        C  0.22985742  0.54802738  0.29514512    -0.12100
C952        C  0.23477488  0.54015479  0.32164824     0.23200
C953        C  0.23115934  0.51351323  0.32910794    -0.12700
C954        C  0.22135309  0.49503699  0.31050421     0.04700
C955        C  0.23995957  0.56054041  0.34236623     0.27100
C956        C  0.26599849  0.56946536  0.34770444    -0.13400
C957        C  0.27010722  0.59096417  0.36522441     0.05200
C958        C  0.24829973  0.60258778  0.37850908    -0.09300
C959        C  0.22244017  0.59242969  0.37437411     0.06000
C960        C  0.21825025  0.57185854  0.35595032    -0.13700
Br961      Br  0.23818874  0.50285801  0.36534058    -0.05800
Br962      Br  0.21150801  0.54099709  0.24080183    -0.00200
Br963      Br  0.30543460  0.60497787  0.37056913     0.00300
Br964      Br  0.18250168  0.56012365  0.34800390    -0.04100
Br965      Br  0.21513377  0.45889233  0.32138623     0.00400
Br966      Br  0.23409288  0.58474915  0.28522338    -0.03400
Br967      Br  0.29578636  0.55249130  0.33060156    -0.04300
Br968      Br  0.19222944  0.60805638  0.39216501    -0.00300
C969        C  0.27771502  0.77334928  0.39323462     0.01100
C970        C  0.25889584  0.78357744  0.37518744     0.03900
C971        C  0.26521672  0.80572731  0.35929524    -0.12100
C972        C  0.29062572  0.81756817  0.36101220     0.23200
C973        C  0.30898640  0.80818298  0.38005364    -0.12700
C974        C  0.30254744  0.78612704  0.39612000     0.04700
C975        C  0.29879401  0.83798354  0.34105259     0.27100
C976        C  0.31416740  0.83040455  0.31876557    -0.13400
C977        C  0.32056321  0.84903426  0.29889495     0.05200
C978        C  0.31118972  0.87530656  0.30073664    -0.09300
C979        C  0.29637848  0.88314183  0.32333596     0.06000
C980        C  0.29035415  0.86453750  0.34352803    -0.13700
Br981      Br  0.34360011  0.82455949  0.38283721    -0.05800
Br982      Br  0.22493923  0.76608665  0.37117709    -0.00200
Br983      Br  0.34274821  0.83864553  0.26919081     0.00300
Br984      Br  0.26998489  0.87507657  0.37435872    -0.04100
Br985      Br  0.32869796  0.77185554  0.42026143     0.00400
Br986      Br  0.23959683  0.81883210  0.33394395    -0.03400
Br987      Br  0.32584053  0.79416545  0.31495030    -0.04300
Br988      Br  0.28304629  0.91884798  0.32594042    -0.00300
C989        C  0.48118060  0.72091730  0.35347842     0.01100
C990        C  0.47095325  0.69474867  0.35274578     0.03900
C991        C  0.44575232  0.68905991  0.36378889    -0.12100
C992        C  0.43026010  0.70946625  0.37496936     0.23200
C993        C  0.44039269  0.73548527  0.37591729    -0.12700
C994        C  0.46570688  0.74123209  0.36524887     0.04700
C995        C  0.40245954  0.70400288  0.38372807     0.27100
C996        C  0.38141729  0.70730133  0.36554375    -0.13400
C997        C  0.35502894  0.70231273  0.37349945     0.05200
C998        C  0.34938430  0.69413581  0.39993805    -0.09300
C999        C  0.37054041  0.69078314  0.41811963     0.06000
C1000       C  0.39698625  0.69576890  0.41001859    -0.13700
Br1001     Br  0.41885330  0.76344225  0.39088219    -0.05800
Br1002     Br  0.49110431  0.66655842  0.33638871    -0.00200
Br1003     Br  0.32670379  0.70841064  0.34817209     0.00300
Br1004     Br  0.42584718  0.69190932  0.43496088    -0.04100
Br1005     Br  0.47765087  0.77765452  0.36444153     0.00400
Br1006     Br  0.43192660  0.65334244  0.36319699    -0.03400
Br1007     Br  0.38881443  0.71964460  0.32982689    -0.04300
Br1008     Br  0.36347520  0.67844850  0.45382491    -0.00300
C1009       C  0.60502509  0.72040967  0.22695734     0.01100
C1010       C  0.62598706  0.70183994  0.22686094     0.03900
C1011       C  0.64328086  0.70027249  0.20503487    -0.12100
C1012       C  0.63859207  0.71583670  0.18229489     0.23200
C1013       C  0.61678654  0.73335336  0.18164380    -0.12700
C1014       C  0.60029713  0.73608411  0.20425092     0.04700
C1015       C  0.65638434  0.71276727  0.15898597     0.27100
C1016       C  0.67817288  0.73001023  0.15550411    -0.13400
C1017       C  0.69711667  0.72476835  0.13552828     0.05200
C1018       C  0.69499937  0.70149766  0.11989932    -0.09300
C1019       C  0.67275864  0.68464824  0.12304951     0.06000
C1020       C  0.65330104  0.69056631  0.14224869    -0.13700
Br1021     Br  0.60994266  0.75368512  0.14991186    -0.05800
Br1022     Br  0.63086605  0.67790809  0.25646528    -0.00200
Br1023     Br  0.72575170  0.74970252  0.12959268     0.00300
Br1024     Br  0.62328284  0.66714604  0.14718840    -0.04100
Br1025     Br  0.57227181  0.76204540  0.20467712     0.00400
Br1026     Br  0.67402832  0.67736378  0.20662066    -0.03400
Br1027     Br  0.68305627  0.75963051  0.17946511    -0.04300
Br1028     Br  0.67009502  0.65189344  0.10325215    -0.00300
C1029       C  0.49767625  0.79539294  0.27189565     0.01100
C1030       C  0.50722401  0.81935439  0.26101365     0.03900
C1031       C  0.48920898  0.83864830  0.25174263    -0.12100
C1032       C  0.46158165  0.83409194  0.25337940     0.23200
C1033       C  0.45206609  0.80990682  0.26382188    -0.12700
C1034       C  0.47003493  0.79088110  0.27357812     0.04700
C1035       C  0.44240062  0.85557779  0.24678887     0.27100
C1036       C  0.43387053  0.87301351  0.26698630    -0.13400
C1037       C  0.41364867  0.89160179  0.26187196     0.05200
C1038       C  0.40068671  0.89187638  0.23680850    -0.09300
C1039       C  0.41019077  0.87514908  0.21621165     0.06000
C1040       C  0.43151684  0.85766294  0.22103105    -0.13700
Br1041     Br  0.41427094  0.80331286  0.26565988    -0.05800
Br1042     Br  0.54494245  0.82637081  0.26045428    -0.00200
Br1043     Br  0.40261752  0.91501464  0.29029198     0.00300
Br1044     Br  0.44572897  0.83617928  0.19259177    -0.04100
Br1045     Br  0.45672049  0.75971114  0.29148145     0.00400
Br1046     Br  0.50213755  0.87182823  0.23775748    -0.03400
Br1047     Br  0.44901168  0.87024047  0.30224796    -0.04300
Br1048     Br  0.39378254  0.87568806  0.18142690    -0.00300
C1049       C  0.48752972  0.20795950  0.71413275     0.01100
C1050       C  0.50419512  0.19473698  0.69568228     0.03900
C1051       C  0.52393984  0.17711432  0.70461339    -0.12100
C1052       C  0.52870328  0.17384117  0.73209363     0.23200
C1053       C  0.51223115  0.18703873  0.75064888    -0.12700
C1054       C  0.49133447  0.20357596  0.74172482     0.04700
C1055       C  0.55239988  0.15823189  0.74099524     0.27100
C1056       C  0.54990844  0.13140330  0.74858684    -0.13400
C1057       C  0.57280528  0.11613192  0.75417965     0.05200
C1058       C  0.59839123  0.12766853  0.75266617    -0.09300
C1059       C  0.60077047  0.15464730  0.74534021     0.06000
C1060       C  0.57793879  0.16978909  0.73958404    -0.13700
Br1061     Br  0.51883624  0.18286771  0.78827199    -0.05800
Br1062     Br  0.50204783  0.20262570  0.65803491    -0.00200
Br1063     Br  0.56920410  0.07922776  0.76347887     0.00300
Br1064     Br  0.58164729  0.20621595  0.72826462    -0.04100
Br1065     Br  0.46754745  0.21951816  0.76730600     0.00400
Br1066     Br  0.54499920  0.15766232  0.67906022    -0.03400
Br1067     Br  0.51511757  0.11536366  0.75021702    -0.04300
Br1068     Br  0.63543444  0.17048171  0.74049983    -0.00300
C1069       C  0.30101213  0.32786648  0.87207130     0.01100
C1070       C  0.30369058  0.34003438  0.84703780     0.03900
C1071       C  0.32423785  0.33228722  0.82975227    -0.12100
C1072       C  0.34208194  0.31221400  0.83753129     0.23200
C1073       C  0.34075133  0.30169999  0.86348731    -0.12700
C1074       C  0.32010475  0.30945454  0.88076078     0.04700
C1075       C  0.35993077  0.30017503  0.81736915     0.27100
C1076       C  0.35068544  0.27858585  0.80214032    -0.13400
C1077       C  0.36525978  0.26993564  0.77989793     0.05200
C1078       C  0.38906632  0.28300390  0.77265933    -0.09300
C1079       C  0.39985157  0.30249357  0.78981486     0.06000
C1080       C  0.38514731  0.31115098  0.81210723    -0.13700
Br1081     Br  0.36654310  0.27586045  0.87468672    -0.05800
Br1082     Br  0.27843798  0.36662469  0.83631991    -0.00200
Br1083     Br  0.35229802  0.24036350  0.75906901     0.00300
Br1084     Br  0.39872780  0.33888284  0.83481409    -0.04100
Br1085     Br  0.31684112  0.29362996  0.91555349     0.00400
Br1086     Br  0.32715232  0.34833225  0.79502361    -0.03400
Br1087     Br  0.31733675  0.26169756  0.81104008    -0.04300
Br1088     Br  0.43364787  0.31888100  0.78193764    -0.00300
C1089       C  0.35564882  0.49269412  0.70811016     0.01100
C1090       C  0.37829573  0.48295695  0.72216265     0.03900
C1091       C  0.38880699  0.45763833  0.71626841    -0.12100
C1092       C  0.37665497  0.44130848  0.69708191     0.23200
C1093       C  0.35534534  0.45121865  0.68200912    -0.12700
C1094       C  0.34547383  0.47699107  0.68673490     0.04700
C1095       C  0.38433248  0.41279765  0.69484192     0.27100
C1096       C  0.40503091  0.40448204  0.67769737    -0.13400
C1097       C  0.41179454  0.37733863  0.67593029     0.05200
C1098       C  0.39788676  0.35847263  0.69127542    -0.09300
C1099       C  0.37720110  0.36685269  0.70832046     0.06000
C1100       C  0.37053103  0.39383955  0.71017368    -0.13700
Br1101     Br  0.33883322  0.42855135  0.65567192    -0.05800
Br1102     Br  0.39494526  0.50266459  0.75072843    -0.00200
Br1103     Br  0.43935892  0.36569994  0.65190511     0.00300
Br1104     Br  0.34240030  0.40496211  0.73389679    -0.04100
Br1105     Br  0.31864376  0.49032671  0.66264717     0.00400
Br1106     Br  0.41932431  0.44432672  0.73540149    -0.03400
Br1107     Br  0.42395841  0.43029155  0.65668325    -0.04300
Br1108     Br  0.35811677  0.34132315  0.72961221    -0.00300
C1109       C  0.30167262  0.59193636  0.63792691     0.01100
C1110       C  0.27580705  0.59471779  0.62732227     0.03900
C1111       C  0.27214792  0.60340369  0.60092372    -0.12100
C1112       C  0.29430389  0.60857653  0.58451490     0.23200
C1113       C  0.32018355  0.60448982  0.59460130    -0.12700
C1114       C  0.32387035  0.59640491  0.62132907     0.04700
C1115       C  0.29024241  0.62058886  0.55763211     0.27100
C1116       C  0.28525565  0.60461236  0.53506927    -0.13400
C1117       C  0.27970338  0.61640278  0.51010851     0.05200
C1118       C  0.27932478  0.64431338  0.50754230    -0.09300
C1119       C  0.28477940  0.66018169  0.53019868     0.06000
C1120       C  0.28996341  0.64836198  0.55507123    -0.13700
Br1121     Br  0.35045684  0.61083601  0.57187743    -0.05800
Br1122     Br  0.24507103  0.58752479  0.64916554    -0.00200
Br1123     Br  0.27339369  0.59425579  0.47938033     0.00300
Br1124     Br  0.29549393  0.67025238  0.58620613    -0.04100
Br1125     Br  0.35917716  0.59136854  0.63527274     0.00400
Br1126     Br  0.23669544  0.60970909  0.58762562    -0.03400
Br1127     Br  0.28558373  0.56657122  0.53872289    -0.04300
Br1128     Br  0.28353636  0.69837734  0.52792656    -0.00300
C1129       C  0.27143006  0.50573573  0.78393955     0.01100
C1130       C  0.27640415  0.47844462  0.78100607     0.03900
C1131       C  0.26547929  0.46029290  0.79925779    -0.12100
C1132       C  0.25005592  0.46940777  0.82091316     0.23200
C1133       C  0.24449570  0.49664761  0.82339463    -0.12700
C1134       C  0.25507062  0.51477887  0.80484541     0.04700
C1135       C  0.24193511  0.45070673  0.84233757     0.27100
C1136       C  0.21735082  0.43734729  0.84117728    -0.13400
C1137       C  0.21088204  0.41815496  0.86056421     0.05200
C1138       C  0.22944131  0.41148620  0.88063983    -0.09300
C1139       C  0.25344073  0.42613228  0.88258509     0.06000
C1140       C  0.25940134  0.44587935  0.86369037    -0.13700
Br1141     Br  0.22334053  0.50905707  0.85292513    -0.05800
Br1142     Br  0.29879778  0.46602575  0.75230145    -0.00200
Br1143     Br  0.17647561  0.40112093  0.85969670     0.00300
Br1144     Br  0.29223830  0.46567930  0.86620248    -0.04100
Br1145     Br  0.24854458  0.55214721  0.80892935     0.00400
Br1146     Br  0.27223356  0.42301539  0.79487092    -0.03400
Br1147     Br  0.19316654  0.44465156  0.81230337    -0.04300
Br1148     Br  0.27983321  0.41768867  0.90921987    -0.00300
C1149       C  0.30699731  0.62447883  0.80984099     0.01100
C1150       C  0.28164381  0.63624420  0.81163512     0.03900
C1151       C  0.27692106  0.65665145  0.83017577    -0.12100
C1152       C  0.29735816  0.66488041  0.84757044     0.23200
C1153       C  0.32171182  0.65105623  0.84780755    -0.12700
C1154       C  0.32669502  0.63113940  0.82869245     0.04700
C1155       C  0.29443647  0.69000322  0.86290462     0.27100
C1156       C  0.30584479  0.71345619  0.85271613    -0.13400
C1157       C  0.30122752  0.73783637  0.86547375     0.05200
C1158       C  0.28538327  0.73895977  0.88878122    -0.09300
C1159       C  0.27533326  0.71530861  0.89988448     0.06000
C1160       C  0.27961915  0.69090398  0.88679647    -0.13700
Br1161     Br  0.34865492  0.66066832  0.87341330    -0.05800
Br1162     Br  0.25346571  0.62469958  0.78826675    -0.00200
Br1163     Br  0.31748729  0.76960074  0.85118932     0.00300
Br1164     Br  0.26487786  0.65870563  0.90123861    -0.04100
Br1165     Br  0.36114185  0.61455507  0.82695125     0.00400
Br1166     Br  0.24296952  0.67444617  0.83055440    -0.03400
Br1167     Br  0.32771648  0.71223796  0.82097729    -0.04300
Br1168     Br  0.25481484  0.71645742  0.93236742    -0.00300
C1169       C  0.39331859  0.62430507  0.74251666     0.01100
C1170       C  0.38970526  0.65217384  0.74344487     0.03900
C1171       C  0.41099899  0.66902271  0.75044097    -0.12100
C1172       C  0.43592499  0.65831109  0.75722675     0.23200
C1173       C  0.43978959  0.63068837  0.75583868    -0.12700
C1174       C  0.41859490  0.61372313  0.74864652     0.04700
C1175       C  0.45761781  0.67597475  0.76719555     0.27100
C1176       C  0.47389073  0.69005412  0.74919445    -0.13400
C1177       C  0.49418669  0.70693955  0.75873004     0.05200
C1178       C  0.49802011  0.71035242  0.78643956    -0.09300
C1179       C  0.48173984  0.69600913  0.80447927     0.06000
C1180       C  0.46179552  0.67879531  0.79484651    -0.13700
Br1181     Br  0.47428792  0.61624910  0.76413818    -0.05800
Br1182     Br  0.35499986  0.66766846  0.73787397    -0.00200
Br1183     Br  0.51758200  0.72428335  0.73366794     0.00300
Br1184     Br  0.43970854  0.65926808  0.81956933    -0.04100
Br1185     Br  0.42443833  0.57600453  0.74717185     0.00400
Br1186     Br  0.40588577  0.70694651  0.75143609    -0.03400
Br1187     Br  0.46813538  0.68621099  0.71138351    -0.04300
Br1188     Br  0.48540418  0.70080746  0.84256083    -0.00300
C1189       C  0.58033102  0.64593747  0.30436082     0.01100
C1190       C  0.59350973  0.63388954  0.32609040     0.03900
C1191       C  0.60217097  0.60736173  0.32429071    -0.12100
C1192       C  0.59905618  0.59311272  0.30030768     0.23200
C1193       C  0.58561255  0.60491275  0.27874085    -0.12700
C1194       C  0.57582781  0.63100117  0.28089838     0.04700
C1195       C  0.61245484  0.56701956  0.29651768     0.27100
C1196       C  0.63965833  0.56639151  0.28970206    -0.13400
C1197       C  0.65210065  0.54216019  0.28366294     0.05200
C1198       C  0.63725612  0.51833532  0.28367980    -0.09300
C1199       C  0.61008218  0.51889557  0.29076432     0.06000
C1200       C  0.59787769  0.54311835  0.29772678    -0.13700
Br1201     Br  0.58259747  0.58591247  0.24541568    -0.05800
Br1202     Br  0.60071287  0.65397932  0.35806078    -0.00200
Br1203     Br  0.68918733  0.54210874  0.27343309     0.00300
Br1204     Br  0.56118068  0.54375502  0.30884942    -0.04100
Br1205     Br  0.55882061  0.64701370  0.25044217     0.00400
Br1206     Br  0.61934733  0.59068223  0.35425391    -0.03400
Br1207     Br  0.65964379  0.59905359  0.28744548    -0.04300
Br1208     Br  0.58961101  0.48650664  0.29097614    -0.00300
C1209       C  0.67307291  0.37695015  0.18587369     0.01100
C1210       C  0.68675816  0.38570221  0.16302945     0.03900
C1211       C  0.69270017  0.36763410  0.14253135    -0.12100
C1212       C  0.68515993  0.34087054  0.14510399     0.23200
C1213       C  0.66990718  0.33255099  0.16715573    -0.12700
C1214       C  0.66358155  0.35070500  0.18738219     0.04700
C1215       C  0.69521562  0.32088924  0.12609450     0.27100
C1216       C  0.67933678  0.31244801  0.10459980    -0.13400
C1217       C  0.68764017  0.29103525  0.08873663     0.05200
C1218       C  0.71101739  0.27714603  0.09543564    -0.09300
C1219       C  0.72763665  0.28658917  0.11594080     0.06000
C1220       C  0.71995532  0.30877360  0.13096592    -0.13700
Br1221     Br  0.65899262  0.29595278  0.17033659    -0.05800
Br1222     Br  0.69883722  0.42191545  0.16071276    -0.00200
Br1223     Br  0.66588867  0.27957440  0.05916531     0.00300
Br1224     Br  0.74248666  0.32164296  0.15933139    -0.04100
Br1225     Br  0.64196261  0.33968827  0.21724181     0.00400
Br1226     Br  0.71236915  0.37900539  0.11158856    -0.03400
Br1227     Br  0.64525314  0.32879014  0.09840954    -0.04300
Br1228     Br  0.76052281  0.26857635  0.12386417    -0.00300
C1229       C  0.59305279  0.38849840  0.25292930     0.01100
C1230       C  0.57936551  0.39217196  0.22844357     0.03900
C1231       C  0.55856180  0.37488857  0.22102190    -0.12100
C1232       C  0.55083078  0.35409641  0.23803551     0.23200
C1233       C  0.56372304  0.35085610  0.26273448    -0.12700
C1234       C  0.58483863  0.36781650  0.27011539     0.04700
C1235       C  0.53022719  0.33463366  0.22935600     0.27100
C1236       C  0.50292432  0.34005636  0.23294927    -0.13400
C1237       C  0.48362902  0.32131224  0.22502308     0.05200
C1238       C  0.49156707  0.29698838  0.21382660    -0.09300
C1239       C  0.51881355  0.29151366  0.21032589     0.06000
C1240       C  0.53806312  0.31046575  0.21760593    -0.13700
Br1241     Br  0.55291731  0.32228849  0.28591464    -0.05800
Br1242     Br  0.59034883  0.41914945  0.20334990    -0.00200
Br1243     Br  0.44623759  0.32894370  0.22889566     0.00300
Br1244     Br  0.57511629  0.30396017  0.21009433    -0.04100
Br1245     Br  0.60249340  0.36237780  0.30378931     0.00400
Br1246     Br  0.54169453  0.37848353  0.18661891    -0.03400
Br1247     Br  0.49201034  0.37356374  0.24775363    -0.04300
Br1248     Br  0.52971940  0.25821292  0.19487872    -0.00300
C1249       C  0.75413937  0.60730171  0.11453609     0.01100
C1250       C  0.75186018  0.58205829  0.10258662     0.03900
C1251       C  0.74334297  0.56003413  0.11776276    -0.12100
C1252       C  0.73775438  0.56292283  0.14519414     0.23200
C1253       C  0.74143917  0.58779722  0.15748165    -0.12700
C1254       C  0.74919531  0.60995878  0.14222766     0.04700
C1255       C  0.72687563  0.54035635  0.16113839     0.27100
C1256       C  0.69949553  0.53947352  0.16732295    -0.13400
C1257       C  0.68949501  0.52001761  0.18482467     0.05200
C1258       C  0.70679460  0.50113882  0.19623340    -0.09300
C1259       C  0.73392986  0.50121552  0.18902632     0.06000
C1260       C  0.74396740  0.52086311  0.17167063    -0.13700
Br1261     Br  0.73491360  0.59156779  0.19529718    -0.05800
Br1262     Br  0.76108686  0.57758861  0.06553537    -0.00200
Br1263     Br  0.65223822  0.52042900  0.19440036     0.00300
Br1264     Br  0.78130082  0.52163779  0.16290275    -0.04100
Br1265     Br  0.75073841  0.64429058  0.15926937     0.00400
Br1266     Br  0.73843254  0.52605556  0.10084603    -0.03400
Br1267     Br  0.67579661  0.56565684  0.15249953    -0.04300
Br1268     Br  0.75715131  0.47388745  0.20230454    -0.00300
C1269       C  0.69224234  0.41727447  0.35123999     0.01100
C1270       C  0.68168926  0.43406131  0.37107836     0.03900
C1271       C  0.68451993  0.42742196  0.39827464    -0.12100
C1272       C  0.69881679  0.40456760  0.40568487     0.23200
C1273       C  0.71062454  0.38865269  0.38587069    -0.12700
C1274       C  0.70726189  0.39490723  0.35878385     0.04700
C1275       C  0.70049717  0.39607278  0.43404263     0.27100
C1276       C  0.72327094  0.40187442  0.44925395    -0.13400
C1277       C  0.72750327  0.38905803  0.47388904     0.05200
C1278       C  0.70814603  0.37104662  0.48406894    -0.09300
C1279       C  0.68386907  0.36793588  0.46996160     0.06000
C1280       C  0.68053658  0.37967035  0.44473126    -0.13700
Br1281     Br  0.73101245  0.35782590  0.39594552    -0.05800
Br1282     Br  0.66308382  0.46583431  0.36092920    -0.00200
Br1283     Br  0.76099027  0.39529173  0.49184238     0.00300
Br1284     Br  0.64913153  0.37218913  0.42388156    -0.04100
Br1285     Br  0.72418078  0.37317666  0.33206970     0.00400
Br1286     Br  0.66820397  0.44901558  0.42541686    -0.03400
Br1287     Br  0.74919140  0.42664211  0.43544783    -0.04300
Br1288     Br  0.65441073  0.34836926  0.48509466    -0.00300
C1289       C  0.62614885  0.31389203  0.57660580     0.01100
C1290       C  0.61454886  0.33338950  0.59326202     0.03900
C1291       C  0.58841567  0.33010072  0.60314719    -0.12100
C1292       C  0.57402828  0.30669966  0.59772867     0.23200
C1293       C  0.58508530  0.28765076  0.58036961    -0.12700
C1294       C  0.61088398  0.29128800  0.56966987     0.04700
C1295       C  0.54842823  0.30106962  0.61205455     0.27100
C1296       C  0.54896386  0.29135683  0.63844726    -0.13400
C1297       C  0.52504127  0.28553916  0.65197803     0.05200
C1298       C  0.50030652  0.28845688  0.63894769    -0.09300
C1299       C  0.49973325  0.29783700  0.61250381     0.06000
C1300       C  0.52365313  0.30477579  0.59936212    -0.13700
Br1301     Br  0.56531056  0.25574490  0.57255273    -0.05800
Br1302     Br  0.63489322  0.36416993  0.60374400    -0.00200
Br1303     Br  0.52634808  0.27243421  0.68815716     0.00300
Br1304     Br  0.52258130  0.31986936  0.56415570    -0.04100
Br1305     Br  0.62632778  0.26351484  0.54819840     0.00400
Br1306     Br  0.57230118  0.35738425  0.62470995    -0.03400
Br1307     Br  0.58262051  0.28541607  0.65594780    -0.04300
Br1308     Br  0.46607956  0.30139543  0.59450670    -0.00300
C1309       C  0.68434633  0.13044338  0.68485973     0.01100
C1310       C  0.67062564  0.12535388  0.66062902     0.03900
C1311       C  0.67383667  0.14255400  0.63880217    -0.12100
C1312       C  0.69195971  0.16372595  0.64032714     0.23200
C1313       C  0.70640180  0.16829016  0.66381986    -0.12700
C1314       C  0.70110790  0.15317605  0.68663073     0.04700
C1315       C  0.69106142  0.18528113  0.62057916     0.27100
C1316       C  0.71021917  0.18714771  0.60013032    -0.13400
C1317       C  0.71264701  0.21081703  0.58546264     0.05200
C1318       C  0.69666570  0.23271393  0.59218690    -0.09300
C1319       C  0.67631892  0.23005060  0.61137279     0.06000
C1320       C  0.67341127  0.20632806  0.62542235    -0.13700
Br1321     Br  0.73162247  0.19736726  0.66531115    -0.05800
Br1322     Br  0.64401064  0.09768704  0.65802493    -0.00200
Br1323     Br  0.73880115  0.21387179  0.55750820     0.00300
Br1324     Br  0.64707204  0.20360988  0.65350309    -0.04100
Br1325     Br  0.71403672  0.16724524  0.72019961     0.00400
Br1326     Br  0.65127050  0.13919021  0.60784712    -0.03400
Br1327     Br  0.73464662  0.15834922  0.59425401    -0.04300
Br1328     Br  0.65301432  0.25928565  0.61951745    -0.00300
C1329       C  0.79493448  0.30951378  0.62091667     0.01100
C1330       C  0.80443277  0.32871966  0.63896173     0.03900
C1331       C  0.82320949  0.32169956  0.65841699    -0.12100
C1332       C  0.83462904  0.29619884  0.65810238     0.23200
C1333       C  0.82646295  0.27756758  0.63874781    -0.12700
C1334       C  0.80551467  0.28373015  0.62127735     0.04700
C1335       C  0.85327556  0.28835688  0.67961812     0.27100
C1336       C  0.87944578  0.29842536  0.68030264    -0.13400
C1337       C  0.89562594  0.29415473  0.70289240     0.05200
C1338       C  0.88564073  0.27941116  0.72479162    -0.09300
C1339       C  0.86106550  0.26575061  0.72168144     0.06000
C1340       C  0.84432615  0.27159242  0.70012725    -0.13700
Br1341     Br  0.84346136  0.24340920  0.63670576    -0.05800
Br1342     Br  0.79164828  0.36462896  0.63711748    -0.00200
Br1343     Br  0.93109562  0.30881773  0.70305327     0.00300
Br1344     Br  0.80811386  0.25849534  0.70005070    -0.04100
Br1345     Br  0.78943104  0.25620363  0.60000343     0.00400
Br1346     Br  0.83178798  0.34639789  0.68660372    -0.03400
Br1347     Br  0.89233266  0.31936768  0.65076956    -0.04300
Br1348     Br  0.85042988  0.23788994  0.74600073    -0.00300
C1349       C  0.77403066  0.50393655  0.69792709     0.01100
C1350       C  0.74627994  0.50070479  0.69492604     0.03900
C1351       C  0.73618840  0.48118122  0.67745219    -0.12100
C1352       C  0.75367407  0.46364393  0.66440114     0.23200
C1353       C  0.78131884  0.46640193  0.66790795    -0.12700
C1354       C  0.79150878  0.48710342  0.68368832     0.04700
C1355       C  0.74322187  0.44180812  0.64743226     0.27100
C1356       C  0.73505244  0.41785399  0.65928599    -0.13400
C1357       C  0.72833049  0.39593014  0.64327924     0.05200
C1358       C  0.72915052  0.39804482  0.61513075    -0.09300
C1359       C  0.73617152  0.42250598  0.60331059     0.06000
C1360       C  0.74347943  0.44419829  0.61944189    -0.13700
Br1361     Br  0.80522942  0.44112078  0.65172950    -0.05800
Br1362     Br  0.72207267  0.52339517  0.71406370    -0.00200
Br1363     Br  0.72150814  0.36221761  0.66039583     0.00300
Br1364     Br  0.75527619  0.47687316  0.60329036    -0.04100
Br1365     Br  0.82964736  0.49157250  0.68619069     0.00400
Br1366     Br  0.69847842  0.47846954  0.67092050    -0.03400
Br1367     Br  0.73491972  0.41455804  0.69763015    -0.04300
Br1368     Br  0.73606526  0.42641315  0.56499063    -0.00300
C1369       C  0.86652979  0.31523960  0.30895264     0.01100
C1370       C  0.83906542  0.31316873  0.31428000     0.03900
C1371       C  0.82191336  0.33388202  0.30731833    -0.12100
C1372       C  0.83203081  0.35684900  0.29494437     0.23200
C1373       C  0.85968604  0.35974943  0.29118193    -0.12700
C1374       C  0.87701277  0.33897048  0.29834688     0.04700
C1375       C  0.81289569  0.37677041  0.28475732     0.27100
C1376       C  0.79926079  0.37155226  0.26075969    -0.13400
C1377       C  0.77581271  0.38544793  0.25468656     0.05200
C1378       C  0.76642362  0.40519942  0.27218699    -0.09300
C1379       C  0.78147474  0.41210533  0.29491843     0.06000
C1380       C  0.80469818  0.39787647  0.30119360    -0.13700
Br1381     Br  0.87352875  0.39175048  0.27543362    -0.05800
Br1382     Br  0.82480830  0.28190576  0.33145164    -0.00200
Br1383     Br  0.75560207  0.37629540  0.22329496     0.00300
Br1384     Br  0.82412339  0.40575636  0.33339216    -0.04100
Br1385     Br  0.91476451  0.34248190  0.29234286     0.00400
Br1386     Br  0.78423315  0.33041912  0.31401155    -0.03400
Br1387     Br  0.81175770  0.34385357  0.23734741    -0.04300
Br1388     Br  0.76856173  0.43878801  0.31927376    -0.00300
C1389       C  0.87267934  0.24783130  0.39387276     0.01100
C1390       C  0.87038752  0.27336926  0.40526279     0.03900
C1391       C  0.85243026  0.27795214  0.42629812    -0.12100
C1392       C  0.83636332  0.25718120  0.43601253     0.23200
C1393       C  0.83907494  0.23151941  0.42522860    -0.12700
C1394       C  0.85689436  0.22691535  0.40394393     0.04700
C1395       C  0.81567088  0.26300123  0.45648791     0.27100
C1396       C  0.82272798  0.26504231  0.48356872    -0.13400
C1397       C  0.80406643  0.27426648  0.50240337     0.05200
C1398       C  0.77793923  0.28087929  0.49440994    -0.09300
C1399       C  0.77080990  0.27832946  0.46732823     0.06000
C1400       C  0.78953825  0.26924758  0.44848990    -0.13700
Br1401     Br  0.81795526  0.20291776  0.43948704    -0.05800
Br1402     Br  0.88955483  0.30303057  0.39026241    -0.00200
Br1403     Br  0.81494655  0.27895545  0.53886821     0.00300
Br1404     Br  0.77989357  0.26671880  0.41135580    -0.04100
Br1405     Br  0.85916140  0.19213784  0.38813139     0.00400
Br1406     Br  0.84896676  0.31310750  0.44118593    -0.03400
Br1407     Br  0.85844054  0.25617124  0.49448330    -0.04300
Br1408     Br  0.73640292  0.29039412  0.45546364    -0.00300
C1409       C  0.99005369  0.29989433  0.28022333     0.01100
C1410       C  0.98917991  0.30746429  0.25317552     0.03900
C1411       C  0.00858402  0.32490420  0.24291267    -0.12100
C1412       C  0.02884983  0.33462623  0.25968838     0.23200
C1413       C  0.02883736  0.32820805  0.28698344    -0.12700
C1414       C  0.00933774  0.31114632  0.29732749     0.04700
C1415       C  0.05063689  0.35138871  0.24909254     0.27100
C1416       C  0.07491010  0.33955404  0.24186976    -0.13400
C1417       C  0.09740217  0.35542499  0.23690658     0.05200
C1418       C  0.09560761  0.38338932  0.23899556    -0.09300
C1419       C  0.07080678  0.39517548  0.24481388     0.06000
C1420       C  0.04841919  0.37916027  0.24993469    -0.13700
Br1421     Br  0.05584334  0.34281910  0.31017498    -0.05800
Br1422     Br  0.96041915  0.29537221  0.23078087    -0.00200
Br1423     Br  0.13106458  0.33819825  0.22996818     0.00300
Br1424     Br  0.01492007  0.39499683  0.25973071    -0.04100
Br1425     Br  0.00960985  0.30303682  0.33499060     0.00400
Br1426     Br  0.00733324  0.33590116  0.20614426    -0.03400
Br1427     Br  0.07766877  0.30136389  0.24077240    -0.04300
Br1428     Br  0.06729224  0.43322054  0.24584021    -0.00300
C1429       C  0.89295073  0.22539205  0.22174382     0.01100
C1430       C  0.87125748  0.24116646  0.21384723     0.03900
C1431       C  0.85702505  0.23481340  0.19064647    -0.12100
C1432       C  0.86494193  0.21321046  0.17472256     0.23200
C1433       C  0.88800614  0.19883610  0.18131068    -0.12700
C1434       C  0.90167070  0.20449207  0.20517548     0.04700
C1435       C  0.84624094  0.20310729  0.15424896     0.27100
C1436       C  0.82570135  0.18586219  0.16234867    -0.13400
C1437       C  0.80461778  0.18011530  0.14493474     0.05200
C1438       C  0.80437277  0.19094226  0.11901021    -0.09300
C1439       C  0.82586199  0.20669620  0.11024865     0.06000
C1440       C  0.84661024  0.21313318  0.12803673    -0.13700
Br1441     Br  0.89947787  0.17013980  0.15866866    -0.05800
Br1442     Br  0.86003969  0.27065316  0.23567974    -0.00200
Br1443     Br  0.77563592  0.15796279  0.15701329     0.00300
Br1444     Br  0.87458063  0.23702054  0.11728347    -0.04100
Br1445     Br  0.92979926  0.18127064  0.21688890     0.00400
Br1446     Br  0.82497334  0.25399547  0.18207936    -0.03400
Br1447     Br  0.82569146  0.17149987  0.19807959    -0.04300
Br1448     Br  0.82582468  0.22098810  0.07460912    -0.00300
C1449       C  0.36245748  0.19157913  0.68875217     0.01100
C1450       C  0.33898228  0.18742882  0.67413275     0.03900
C1451       C  0.32128183  0.16730501  0.68168507    -0.12100
C1452       C  0.32756266  0.15051981  0.70326425     0.23200
C1453       C  0.35180716  0.15377954  0.71702700    -0.12700
C1454       C  0.36904872  0.17469008  0.71005385     0.04700
C1455       C  0.30738862  0.13100535  0.71214338     0.27100
C1456       C  0.29033824  0.13756337  0.73339772    -0.13400
C1457       C  0.26654078  0.12341979  0.73706223     0.05200
C1458       C  0.25883645  0.10374262  0.71843537    -0.09300
C1459       C  0.27697694  0.09592807  0.69828521     0.06000
C1460       C  0.30170558  0.10889135  0.69597789    -0.13700
Br1461     Br  0.36085103  0.13022869  0.74584933    -0.05800
Br1462     Br  0.33070087  0.20990517  0.64417043    -0.00200
Br1463     Br  0.24410715  0.13212413  0.76713765     0.00300
Br1464     Br  0.32690957  0.09845533  0.66885319    -0.04100
Br1465     Br  0.40105228  0.18111626  0.73027579     0.00400
Br1466     Br  0.28758425  0.16387790  0.66340754    -0.03400
Br1467     Br  0.29817873  0.16773327  0.75585780    -0.04300
Br1468     Br  0.26694931  0.07065456  0.67112983    -0.00300
C1469       C  0.21154979  0.23920408  0.89184737     0.01100
C1470       C  0.18936444  0.22340780  0.89867850     0.03900
C1471       C  0.18291747  0.20097550  0.88324400    -0.12100
C1472       C  0.19827346  0.19456428  0.86063245     0.23200
C1473       C  0.22063896  0.21010138  0.85399051    -0.12700
C1474       C  0.22754022  0.23207421  0.86984513     0.04700
C1475       C  0.18925719  0.17341002  0.84213741     0.27100
C1476       C  0.20058109  0.14790511  0.84306231    -0.13400
C1477       C  0.19333654  0.12865015  0.82397329     0.05200
C1478       C  0.17457718  0.13491726  0.80400957    -0.09300
C1479       C  0.16219609  0.16002863  0.80419912     0.06000
C1480       C  0.16977723  0.17928889  0.82292988    -0.13700
Br1481     Br  0.24014786  0.20282721  0.82160805    -0.05800
Br1482     Br  0.16579743  0.23428289  0.92703565    -0.00200
Br1483     Br  0.21034160  0.09441592  0.82439659     0.00300
Br1484     Br  0.15402465  0.21416235  0.82180125    -0.04100
Br1485     Br  0.25834391  0.25314987  0.86078173     0.00400
Br1486     Br  0.15152525  0.18042189  0.89139159    -0.03400
Br1487     Br  0.22650734  0.13977179  0.87012944    -0.04300
Br1488     Br  0.13412170  0.16804127  0.77928338    -0.00300
C1489       C  0.08818166  0.12695157  0.73297521     0.01100
C1490       C  0.06529843  0.11605964  0.74552106     0.03900
C1491       C  0.04453729  0.13267158  0.75418866     0.02300
C1492       C  0.04546630  0.15997736  0.74884100     0.23200
C1493       C  0.06643820  0.17046808  0.73354942    -0.12700
C1494       C  0.08771828  0.15414099  0.72548137     0.04700
C1495       C  0.02500976  0.17797134  0.76019083     0.27100
C1496       C  0.00147279  0.18335684  0.74601986    -0.13400
C1497       C  0.98266787  0.20131409  0.75640519     0.05200
C1498       C  0.98713806  0.21359589  0.78138567    -0.09300
C1499       C  0.01120204  0.20872286  0.79504041     0.06000
C1500       C  0.02991476  0.19083634  0.78461313    -0.13700
Br1501     Br  0.06650912  0.20785919  0.72519890    -0.05800
Br1502     Br  0.06142902  0.07820721  0.75002558    -0.00200
Br1503     Br  0.95123470  0.20936658  0.73589425     0.00300
Br1504     Br  0.06291524  0.18470196  0.80328867    -0.04100
Br1505     Br  0.11618070  0.17029808  0.70527627     0.00400
Br1506     Br  0.01542295  0.11839246  0.77483975    -0.03400
Br1507     Br  0.99552499  0.16653479  0.71199877    -0.04300
Br1508     Br  0.02032482  0.22878179  0.82641620    -0.00300
C1509       C  0.20262268  0.00656425  0.78978647     0.01100
C1510       C  0.18635046  0.98539325  0.79851793     0.03900
C1511       C  0.19584496  0.96704537  0.81726866    -0.12100
C1512       C  0.22236131  0.96843054  0.82614372     0.23200
C1513       C  0.23891798  0.98923301  0.81727096    -0.12700
C1514       C  0.22893211  0.00861108  0.79958810     0.04700
C1515       C  0.23310967  0.94656319  0.84287342     0.27100
C1516       C  0.23524885  0.94926972  0.87079752    -0.13400
C1517       C  0.24334272  0.92754813  0.88649733     0.05200
C1518       C  0.24746580  0.90258045  0.87457580    -0.09300
C1519       C  0.24581759  0.90007350  0.84652979     0.06000
C1520       C  0.23944343  0.92217473  0.83075639    -0.13700
Br1521     Br  0.27542540  0.99060864  0.82899898    -0.05800
Br1522     Br  0.15176926  0.97970151  0.78296992    -0.00200
Br1523     Br  0.25010510  0.93217015  0.92404692     0.00300
Br1524     Br  0.23839314  0.91886711  0.79238907    -0.04100
Br1525     Br  0.25111224  0.03820506  0.78959067     0.00400
Br1526     Br  0.17254429  0.93957395  0.83061982    -0.03400
Br1527     Br  0.22574558  0.98227981  0.88758691    -0.04300
Br1528     Br  0.25007254  0.86596642  0.82947267    -0.00300
C1529       C  0.38392431  0.22125285  0.26069881     0.01100
C1530       C  0.39533236  0.22822998  0.28548393     0.03900
C1531       C  0.38076506  0.22427750  0.30927668    -0.12100
C1532       C  0.35416123  0.21545571  0.30818242     0.23200
C1533       C  0.34281558  0.20863598  0.28348775    -0.12700
C1534       C  0.35826006  0.20962814  0.26024075     0.04700
C1535       C  0.33854007  0.21062037  0.33284842     0.27100
C1536       C  0.33615366  0.18452143  0.34254515    -0.13400
C1537       C  0.31747427  0.17857566  0.36255506     0.05200
C1538       C  0.30084171  0.19864282  0.37264685    -0.09300
C1539       C  0.30414989  0.22500307  0.36397453     0.06000
C1540       C  0.32332192  0.23108442  0.34439441    -0.13700
Br1541     Br  0.30598330  0.19767713  0.28149087    -0.05800
Br1542     Br  0.43050074  0.24338413  0.28712460    -0.00200
Br1543     Br  0.31322204  0.14254323  0.37463320     0.00300
Br1544     Br  0.32792277  0.26714203  0.33252488    -0.04100
Br1545     Br  0.34526016  0.19173538  0.22865749     0.00400
Br1546     Br  0.39724902  0.22999125  0.34345996    -0.03400
Br1547     Br  0.35731404  0.15664761  0.32692892    -0.04300
Br1548     Br  0.28144366  0.25245126  0.37801697    -0.00300
C1549       C  0.28023445  0.00405948  0.28628606     0.01100
C1550       C  0.29808246  0.01933743  0.30191224     0.03900
C1551       C  0.28846053  0.03914575  0.31917801    -0.12100
C1552       C  0.26095775  0.04386540  0.32129771     0.23200
C1553       C  0.24309284  0.02916090  0.30535897    -0.12700
C1554       C  0.25266658  0.00931692  0.28791457     0.04700
C1555       C  0.25133786  0.06541136  0.33927416     0.27100
C1556       C  0.24999578  0.06145169  0.36711648    -0.13400
C1557       C  0.24382475  0.08275738  0.38433470     0.05200
C1558       C  0.23890502  0.10821018  0.37378820    -0.09300
C1559       C  0.24003538  0.11199423  0.34579439     0.06000
C1560       C  0.24617116  0.09070396  0.32871533    -0.13700
Br1561     Br  0.20555492  0.03684882  0.30694499    -0.05800
Br1562     Br  0.33610627  0.01478950  0.29854165    -0.00200
Br1563     Br  0.24195211  0.07693613  0.42230069     0.00300
Br1564     Br  0.24918160  0.09651132  0.29075112    -0.04100
Br1565     Br  0.22784059  0.98900847  0.26680715     0.00400
Br1566     Br  0.31307914  0.06099054  0.33911717    -0.03400
Br1567     Br  0.25771033  0.02693773  0.38162775    -0.04300
Br1568     Br  0.23572131  0.14686119  0.33044964    -0.00300
C1569       C  0.36705421  0.26061771  0.60054729     0.01100
C1570       C  0.34768912  0.28023942  0.59484101     0.03900
C1571       C  0.32899890  0.27631510  0.57415600    -0.12100
C1572       C  0.32868413  0.25239087  0.55968483     0.23200
C1573       C  0.34800104  0.23295491  0.56507158    -0.12700
C1574       C  0.36759256  0.23731782  0.58473393     0.04700
C1575       C  0.30793894  0.24706702  0.53901870     0.27100
C1576       C  0.28358262  0.23508484  0.54623238    -0.13400
C1577       C  0.26589199  0.22606640  0.52634043     0.05200
C1578       C  0.27280964  0.22832227  0.49914431    -0.09300
C1579       C  0.29620653  0.24198452  0.49196010     0.06000
C1580       C  0.31356149  0.25161804  0.51184771    -0.13700
Br1581     Br  0.34628978  0.19938970  0.54657112    -0.05800
Br1582     Br  0.34642931  0.31267661  0.61530655    -0.00200
Br1583     Br  0.23254397  0.20986298  0.53638253     0.00300
Br1584     Br  0.34536245  0.27064767  0.50204829    -0.04100
Br1585     Br  0.39377882  0.21007380  0.59086989     0.00400
Br1586     Br  0.30320113  0.30333481  0.56595590    -0.03400
Br1587     Br  0.27504064  0.23008794  0.58340392    -0.04300
Br1588     Br  0.30434336  0.24741702  0.45480801    -0.00300
C1589       C  0.00400557  0.21495139  0.35345421     0.01100
C1590       C  0.02896359  0.22138626  0.34225556     0.03900
C1591       C  0.05252363  0.21398143  0.35527401    -0.12100
C1592       C  0.05140204  0.19852694  0.37863373     0.23200
C1593       C  0.02650541  0.19132167  0.38942933    -0.12700
C1594       C  0.00281135  0.19982056  0.37701991     0.04700
C1595       C  0.07667146  0.19172473  0.39238189     0.27100
C1596       C  0.09218710  0.17021884  0.38351217    -0.13400
C1597       C  0.11894131  0.16791206  0.39165382     0.05200
C1598       C  0.13013027  0.18697267  0.40907583    -0.09300
C1599       C  0.11381039  0.20743025  0.41935370     0.06000
C1600       C  0.08708910  0.20942146  0.41136804    -0.13700
Br1601     Br  0.02510676  0.17050111  0.42155857    -0.05800
Br1602     Br  0.03112526  0.24030294  0.30889940    -0.00200
Br1603     Br  0.14029636  0.13902108  0.37831355     0.00300
Br1604     Br  0.06486895  0.23737364  0.42525881    -0.04100
Br1605     Br  0.96873047  0.19040980  0.39184238     0.00400
Br1606     Br  0.08644729  0.22633024  0.34192665    -0.03400
Br1607     Br  0.07672367  0.14436199  0.35975303    -0.04300
Br1608     Br  0.12850880  0.23513649  0.44156381    -0.00300
C1609       C  0.17711001  0.08695625  0.63503395     0.01100
C1610       C  0.19051001  0.06927409  0.61739743     0.03900
C1611       C  0.19377260  0.07588100  0.59016907    -0.12100
C1612       C  0.18570967  0.10082397  0.58061821     0.23200
C1613       C  0.17153240  0.11791646  0.59758456    -0.12700
C1614       C  0.16591779  0.11045053  0.62405200     0.04700
C1615       C  0.19397603  0.11027925  0.55360829     0.27100
C1616       C  0.22009981  0.11981399  0.54970893    -0.13400
C1617       C  0.22716132  0.13230086  0.52560530     0.05200
C1618       C  0.20807207  0.13570768  0.50527945    -0.09300
C1619       C  0.18233724  0.12499104  0.50859538     0.06000
C1620       C  0.17534779  0.11216057  0.53263636    -0.13700
Br1621     Br  0.16127424  0.15261680  0.58495567    -0.05800
Br1622     Br  0.20647370  0.03673907  0.62977630    -0.00200
Br1623     Br  0.26269119  0.14627221  0.52122853     0.00300
Br1624     Br  0.14003668  0.09785984  0.53731041    -0.04100
Br1625     Br  0.14191368  0.13271485  0.64425022     0.00400
Br1626     Br  0.21025113  0.05124343  0.56577444    -0.03400
Br1627     Br  0.24590467  0.11711582  0.57807786    -0.04300
Br1628     Br  0.15681874  0.12775823  0.48006145    -0.00300
C1629       C  0.20135654  0.27179989  0.39276521     0.01100
C1630       C  0.18389620  0.27417899  0.37087476     0.03900
C1631       C  0.18299295  0.29777986  0.35611860    -0.12100
C1632       C  0.19936675  0.31934892  0.36321559     0.23200
C1633       C  0.21579211  0.31758680  0.38593524    -0.12700
C1634       C  0.21681342  0.29378031  0.40071377     0.04700
C1635       C  0.19914943  0.34335628  0.34603520     0.27100
C1636       C  0.21581886  0.34460074  0.32348376    -0.13400
C1637       C  0.21085380  0.36331651  0.30327098     0.05200
C1638       C  0.18880263  0.38057593  0.30529236    -0.09300
C1639       C  0.17381358  0.38098584  0.32923123     0.06000
C1640       C  0.17923913  0.36256906  0.34960614    -0.13700
Br1641     Br  0.23730661  0.34753205  0.39617933    -0.05800
Br1642     Br  0.16118946  0.24486984  0.36084587    -0.00200
Br1643     Br  0.23472180  0.36552267  0.27316484     0.00300
Br1644     Br  0.15858991  0.36249584  0.38204721    -0.04100
Br1645     Br  0.24037897  0.29071965  0.43081722     0.00400
Br1646     Br  0.15985369  0.30033671  0.32545861    -0.03400
Br1647     Br  0.24477817  0.31980200  0.31993786    -0.04300
Br1648     Br  0.14428213  0.40498202  0.33365572    -0.00300
C1649       C  0.11548387  0.69792601  0.69375728     0.01100
C1650       C  0.13087572  0.69878791  0.71754427     0.03900
C1651       C  0.15095852  0.68000831  0.72207992    -0.12100
C1652       C  0.15609129  0.66019377  0.70309989     0.23200
C1653       C  0.13990274  0.65800042  0.68033884    -0.12700
C1654       C  0.11922261  0.67634105  0.67589281     0.04700
C1655       C  0.18056100  0.64397811  0.70570298     0.27100
C1656       C  0.20494108  0.65476094  0.69717015    -0.13400
C1657       C  0.22862308  0.64056168  0.70077959     0.05200
C1658       C  0.22829000  0.61566561  0.71386383    -0.09300
C1659       C  0.20384185  0.60508581  0.72284158     0.06000
C1660       C  0.17995026  0.61899900  0.71823234    -0.13700
Br1661     Br  0.14782096  0.63112172  0.65409716    -0.05800
Br1662     Br  0.12556003  0.72579236  0.74435908    -0.00200
Br1663     Br  0.26135034  0.65552452  0.68696761     0.00300
Br1664     Br  0.14634129  0.60434780  0.72953049    -0.04100
Br1665     Br  0.09779386  0.67215733  0.64417122     0.00400
Br1666     Br  0.17327627  0.68263883  0.75339324    -0.03400
Br1667     Br  0.20589516  0.68961170  0.68117083    -0.04300
Br1668     Br  0.20323380  0.57297370  0.74360765    -0.00300
C1669       C  0.11329387  0.75744912  0.59968266     0.01100
C1670       C  0.10466629  0.76422808  0.57375688     0.03900
C1671       C  0.12081830  0.75848588  0.55134960    -0.12100
C1672       C  0.14593228  0.74652791  0.55473180     0.23200
C1673       C  0.15496327  0.74063493  0.58058399    -0.12700
C1674       C  0.13863103  0.74550110  0.60285312     0.04700
C1675       C  0.16257582  0.73856385  0.53137583     0.27100
C1676       C  0.15927640  0.71320103  0.52020907    -0.13400
C1677       C  0.17782381  0.70338539  0.50158326     0.05200
C1678       C  0.19929658  0.71957306  0.49260026    -0.09300
C1679       C  0.20159347  0.74567149  0.50287969     0.06000
C1680       C  0.18360508  0.75483652  0.52251448    -0.13700
Br1681     Br  0.18998332  0.72561201  0.58538291    -0.05800
Br1682     Br  0.07143688  0.78253813  0.56894006    -0.00200
Br1683     Br  0.17437387  0.66664653  0.49078471     0.00300
Br1684     Br  0.18795490  0.78955330  0.53804736    -0.04100
Br1685     Br  0.15087280  0.73385707  0.63744539     0.00400
Br1686     Br  0.10876022  0.76696181  0.51591699    -0.03400
Br1687     Br  0.12946885  0.69153743  0.53124900    -0.04300
Br1688     Br  0.22868050  0.76951681  0.48982030    -0.00300
C1689       C  0.08342745  0.86548178  0.68126378     0.01100
C1690       C  0.06567484  0.88446427  0.67095051     0.03900
C1691       C  0.07083018  0.91174305  0.67446058    -0.12100
C1692       C  0.09342492  0.92008396  0.68886513     0.23200
C1693       C  0.11182741  0.90114913  0.69800551    -0.12700
C1694       C  0.10733453  0.87399623  0.69342963     0.04700
C1695       C  0.09835620  0.94865261  0.69444516     0.27100
C1696       C  0.11267594  0.96415735  0.67608745    -0.13400
C1697       C  0.12163788  0.98958098  0.68338127     0.05200
C1698       C  0.11744007  0.99925456  0.70956566    -0.09300
C1699       C  0.09980402  0.98519203  0.72654301     0.06000
C1700       C  0.09074021  0.95971380  0.71910959    -0.13700
Br1701     Br  0.14279504  0.91248807  0.71778360    -0.05800
Br1702     Br  0.03521809  0.87300923  0.65064869    -0.00200
Br1703     Br  0.13857117  0.01162871  0.65688060     0.00300
Br1704     Br  0.06920509  0.93901458  0.74327854    -0.04100
Br1705     Br  0.13383885  0.84864343  0.70468785     0.00400
Br1706     Br  0.04701544  0.93773047  0.65971085    -0.03400
Br1707     Br  0.12136570  0.94985120  0.64147631    -0.04300
Br1708     Br  0.08785568  0.00005731  0.75993451    -0.00300
C1709       C  0.89213183  0.62108494  0.74428424     0.01100
C1710       C  0.90108247  0.63647155  0.76609360     0.03900
C1711       C  0.92145749  0.65540697  0.76257511    -0.12100
C1712       C  0.93360451  0.65856193  0.73744775     0.23200
C1713       C  0.92600210  0.64197032  0.71613523    -0.12700
C1714       C  0.90490541  0.62378608  0.71927618     0.04700
C1715       C  0.95280724  0.68059187  0.73252318     0.27100
C1716       C  0.94378767  0.70442786  0.72100874    -0.13400
C1717       C  0.96208922  0.72428395  0.71349678     0.05200
C1718       C  0.98968088  0.71983622  0.71615191    -0.09300
C1719       C  0.99861363  0.69636039  0.72861975     0.06000
C1720       C  0.98017906  0.67706750  0.73725972    -0.13700
Br1721     Br  0.94381399  0.64529117  0.68215365    -0.05800
Br1722     Br  0.88497679  0.63202226  0.80079250    -0.00200
Br1723     Br  0.94923638  0.75674584  0.69784814     0.00300
Br1724     Br  0.99234922  0.64528655  0.75469502    -0.04100
Br1725     Br  0.89157406  0.60532004  0.68827193     0.00400
Br1726     Br  0.93188782  0.67795138  0.79181668    -0.03400
Br1727     Br  0.90635390  0.70900500  0.71383745    -0.04300
Br1728     Br  0.03619566  0.69042273  0.73365910    -0.00300
C1729       C  0.08552038  0.79569390  0.76859296     0.01100
C1730       C  0.09626579  0.82050471  0.77541386     0.03900
C1731       C  0.11370216  0.82280091  0.79710139    -0.12100
C1732       C  0.11854634  0.80066757  0.81346431     0.23200
C1733       C  0.10396149  0.77706522  0.80936262    -0.12700
C1734       C  0.08752416  0.77450042  0.78670234     0.04700
C1735       C  0.14024995  0.80198313  0.83352241     0.27100
C1736       C  0.16595987  0.79367107  0.82638160    -0.13400
C1737       C  0.18749677  0.79767932  0.84389223     0.05200
C1738       C  0.18371315  0.81124981  0.86849759    -0.09300
C1739       C  0.15738406  0.81865330  0.87591540     0.06000
C1740       C  0.13585577  0.81368998  0.85855537    -0.13700
Br1741     Br  0.10733579  0.74821430  0.83421989    -0.05800
Br1742     Br  0.08555227  0.85147325  0.75587436    -0.00200
Br1743     Br  0.22172267  0.78335011  0.83374863     0.00300
Br1744     Br  0.10011755  0.82380524  0.86834615    -0.04100
Br1745     Br  0.06774751  0.74235003  0.78043998     0.00400
Br1746     Br  0.13234944  0.85571278  0.80313927    -0.03400
Br1747     Br  0.17169432  0.77769324  0.79177264    -0.04300
Br1748     Br  0.14993335  0.83718370  0.90884363    -0.00300
C1749       C  0.85885162  0.01694095  0.27416479     0.01100
C1750       C  0.87235018  0.03230958  0.25476300     0.03900
C1751       C  0.88248246  0.05752002  0.26147765    -0.12100
C1752       C  0.87890572  0.06773506  0.28737120     0.23200
C1753       C  0.86635597  0.05217947  0.30697494    -0.12700
C1754       C  0.85683804  0.02667882  0.30056923     0.04700
C1755       C  0.88622412  0.09571622  0.29312096     0.27100
C1756       C  0.91190584  0.10235020  0.30226799    -0.13400
C1757       C  0.91905245  0.12914105  0.30609321     0.05200
C1758       C  0.90064135  0.14937643  0.30026608    -0.09300
C1759       C  0.87503590  0.14260047  0.29072787     0.06000
C1760       C  0.86766317  0.11587943  0.28791177    -0.13700
Br1761     Br  0.86077968  0.06663887  0.34217135    -0.05800
Br1762     Br  0.87511731  0.02031804  0.21829590    -0.00200
Br1763     Br  0.95383843  0.13804339  0.31969134     0.00300
Br1764     Br  0.83207964  0.10676388  0.27656558    -0.04100
Br1765     Br  0.84136911  0.00501980  0.32827773     0.00400
Br1766     Br  0.89985126  0.07909227  0.23480090    -0.03400
Br1767     Br  0.93723912  0.07462741  0.30922506    -0.04300
Br1768     Br  0.85065305  0.16973826  0.27893455    -0.00300
C1769       C  0.80650087  0.88346671  0.17747227     0.01100
C1770       C  0.78220965  0.86969576  0.17524492     0.03900
C1771       C  0.77919054  0.84977342  0.15586012    -0.12100
C1772       C  0.79969391  0.84509015  0.13720707     0.23200
C1773       C  0.82259038  0.86129954  0.13733639    -0.12700
C1774       C  0.82648350  0.87976103  0.15804313     0.04700
C1775       C  0.79888786  0.82096869  0.12019047     0.27100
C1776       C  0.81472392  0.79904222  0.12722062    -0.13400
C1777       C  0.81286813  0.77541047  0.11261149     0.05200
C1778       C  0.79395163  0.77280874  0.09205371    -0.09300
C1779       C  0.77873477  0.79492051  0.08431997     0.06000
C1780       C  0.78167545  0.81920715  0.09802074    -0.13700
Br1781     Br  0.84929739  0.85686749  0.11002199    -0.05800
Br1782     Br  0.75301444  0.87844721  0.19866423    -0.00200
Br1783     Br  0.83650801  0.74641368  0.12062379     0.00300
Br1784     Br  0.76171814  0.84987370  0.08702956    -0.04100
Br1785     Br  0.86027318  0.89774339  0.16123713     0.00400
Br1786     Br  0.74789809  0.82754784  0.15641111    -0.03400
Br1787     Br  0.83791859  0.80067402  0.15792736    -0.04300
Br1788     Br  0.75263343  0.79143991  0.05639637    -0.00300
C1789       C  0.89243585  0.88388877  0.24596702     0.01100
C1790       C  0.91838985  0.89463080  0.24479915     0.03900
C1791       C  0.94041938  0.87802978  0.23968232    -0.12100
C1792       C  0.93669751  0.85070192  0.23505649     0.23200
C1793       C  0.91095175  0.83977990  0.23690043    -0.12700
C1794       C  0.88892529  0.85622414  0.24221756     0.04700
C1795       C  0.95937583  0.83390291  0.22585630     0.27100
C1796       C  0.96660311  0.83391048  0.19869225    -0.13400
C1797       C  0.98712565  0.81726669  0.18939101     0.05200
C1798       C  0.00035989  0.79997163  0.20721480    -0.09300
C1799       C  0.99382710  0.80087990  0.23464232     0.06000
C1800       C  0.97336305  0.81768093  0.24386817    -0.13700
Br1801     Br  0.90580659  0.80224485  0.23111649    -0.05800
Br1802     Br  0.92390713  0.93205665  0.25017710    -0.00200
Br1803     Br  0.99575727  0.81754573  0.15182394     0.00300
Br1804     Br  0.96418295  0.81833262  0.28118810    -0.04100
Br1805     Br  0.85370500  0.84073980  0.24174735     0.00400
Br1806     Br  0.97590842  0.89256039  0.23857464    -0.03400
Br1807     Br  0.94751326  0.85624443  0.17402190    -0.04300
Br1808     Br  0.01378772  0.78007154  0.25992543    -0.00300
C1809       C  0.73690692  0.10533353  0.10832469     0.01100
C1810       C  0.71648493  0.09541678  0.12499161     0.03900
C1811       C  0.72156760  0.07412489  0.14251587    -0.12100
C1812       C  0.74731394  0.06326708  0.14424680     0.23200
C1813       C  0.76753480  0.07272560  0.12726981    -0.12700
C1814       C  0.76220398  0.09304976  0.10881907     0.04700
C1815       C  0.75382658  0.04280504  0.16465875     0.27100
C1816       C  0.76344470  0.05070421  0.18986590    -0.13400
C1817       C  0.77318089  0.03167728  0.20789336     0.05200
C1818       C  0.77301373  0.00458694  0.20102318    -0.09300
C1819       C  0.76224398  0.99651867  0.17636038     0.06000
C1820       C  0.75283715  0.01561257  0.15812852    -0.13700
Br1821     Br  0.80321498  0.05905870  0.13082610    -0.05800
Br1822     Br  0.68148972  0.11098427  0.12381986    -0.00200
Br1823     Br  0.78819325  0.04281904  0.24150151     0.00300
Br1824     Br  0.73953272  0.00478016  0.12375350    -0.04100
Br1825     Br  0.79053544  0.10501371  0.08568435     0.00400
Br1826     Br  0.69362298  0.06034687  0.16493506    -0.03400
Br1827     Br  0.76437469  0.08779610  0.19917216    -0.04300
Br1828     Br  0.76064207  0.95932964  0.16758823    -0.00300
C1829       C  0.72658818  0.90118515  0.28154305     0.01100
C1830       C  0.72670815  0.87913257  0.29892770     0.03900
C1831       C  0.70293170  0.86576298  0.30491297    -0.12100
C1832       C  0.67857769  0.87520763  0.29496990     0.23200
C1833       C  0.67801158  0.89906670  0.28036320    -0.12700
C1834       C  0.70205325  0.91164363  0.27293835     0.04700
C1835       C  0.65454999  0.85811172  0.29758942     0.27100
C1836       C  0.64943199  0.83902691  0.27772295    -0.13400
C1837       C  0.63143001  0.81820180  0.28264525     0.05200
C1838       C  0.61808269  0.81648302  0.30737889    -0.09300
C1839       C  0.62144389  0.83695691  0.32634076     0.06000
C1840       C  0.63973358  0.85768919  0.32145811    -0.13700
Br1841     Br  0.64430639  0.91447757  0.27103512    -0.05800
Br1842     Br  0.75920388  0.86770097  0.31585897    -0.00200
Br1843     Br  0.62531283  0.79197404  0.25535050     0.00300
Br1844     Br  0.64572777  0.88483446  0.34786924    -0.04100
Br1845     Br  0.70142140  0.94204300  0.24972764     0.00400
Br1846     Br  0.70376582  0.83392221  0.32628693    -0.03400
Br1847     Br  0.66827817  0.84076272  0.24417492    -0.04300
Br1848     Br  0.60265324  0.83558087  0.35984607    -0.00300
C1849       C  0.85053829  0.81534609  0.58112923     0.01100
C1850       C  0.85838217  0.79929806  0.60275806     0.03900
C1851       C  0.88532742  0.79733637  0.60982114    -0.12100
C1852       C  0.90486115  0.81110977  0.59515537     0.23200
C1853       C  0.89717423  0.82709724  0.57341624    -0.12700
C1854       C  0.87005490  0.82890380  0.56614851     0.04700
C1855       C  0.93314465  0.80934269  0.60389850     0.27100
C1856       C  0.94168448  0.82463552  0.62562398    -0.13400
C1857       C  0.96551964  0.81838534  0.63899889     0.05200
C1858       C  0.98242532  0.79759983  0.62931393    -0.09300
C1859       C  0.97516868  0.78498080  0.60496061     0.06000
C1860       C  0.95017470  0.79002746  0.59313347    -0.13700
Br1861     Br  0.92371136  0.84735574  0.55455447    -0.05800
Br1862     Br  0.83231211  0.77889379  0.62227322    -0.00200
Br1863     Br  0.97233756  0.83798406  0.67157194     0.00300
Br1864     Br  0.93837028  0.76956214  0.56281990    -0.04100
Br1865     Br  0.85954947  0.85031736  0.53617508     0.00400
Br1866     Br  0.89549136  0.77624252  0.64027266    -0.03400
Br1867     Br  0.91936274  0.85345123  0.63778549    -0.04300
Br1868     Br  0.99914624  0.76132461  0.58656562    -0.00300
C1869       C  0.77706907  0.86586697  0.47742036     0.01100
C1870       C  0.77664236  0.85085375  0.45353788     0.03900
C1871       C  0.78192022  0.86307731  0.42884588    -0.12100
C1872       C  0.78819128  0.89026877  0.42774120     0.23200
C1873       C  0.78841974  0.90536301  0.45142316    -0.12700
C1874       C  0.78276073  0.89324244  0.47618208     0.04700
C1875       C  0.79399805  0.90283799  0.40146335     0.27100
C1876       C  0.81965327  0.90105491  0.39016270    -0.13400
C1877       C  0.82420920  0.90960610  0.36375838     0.05200
C1878       C  0.80346550  0.92126944  0.34902689    -0.09300
C1879       C  0.77827707  0.92476043  0.36111527     0.06000
C1880       C  0.77338564  0.91489486  0.38691088    -0.13700
Br1881     Br  0.79622719  0.94273243  0.44966752    -0.05800
Br1882     Br  0.76752595  0.81363542  0.45415827    -0.00200
Br1883     Br  0.85870972  0.90512098  0.34758557     0.00300
Br1884     Br  0.73793349  0.91622702  0.40167809    -0.04100
Br1885     Br  0.78365936  0.91395738  0.50846375     0.00400
Br1886     Br  0.77963080  0.84282468  0.39617869    -0.03400
Br1887     Br  0.84828336  0.88622043  0.41078557    -0.04300
Br1888     Br  0.74962219  0.94136406  0.34179829    -0.00300
C1889       C  0.68238800  0.81981180  0.61963262     0.01100
C1890       C  0.68122076  0.83169861  0.64502955     0.03900
C1891       C  0.66107687  0.82453329  0.66311351    -0.12100
C1892       C  0.64213313  0.80508928  0.65610711     0.23200
C1893       C  0.64218736  0.79445543  0.63006180    -0.12700
C1894       C  0.66238347  0.80174274  0.61183609     0.04700
C1895       C  0.62392972  0.79467181  0.67714946     0.27100
C1896       C  0.63236205  0.77343133  0.69327380    -0.13400
C1897       C  0.61880196  0.76751349  0.71714954     0.05200
C1898       C  0.59659464  0.78273552  0.72504800    -0.09300
C1899       C  0.58681270  0.80250481  0.70769256     0.06000
C1900       C  0.60045637  0.80838765  0.68378484    -0.13700
Br1901     Br  0.61482446  0.76973329  0.61967808    -0.05800
Br1902     Br  0.70773143  0.85749850  0.65524301    -0.00200
Br1903     Br  0.63124552  0.73899863  0.73951156     0.00300
Br1904     Br  0.58831846  0.83657226  0.66094175    -0.04100
Br1905     Br  0.66364257  0.78587091  0.57684508     0.00400
Br1906     Br  0.65976033  0.84095152  0.69788331    -0.03400
Br1907     Br  0.66367734  0.75360374  0.68344572    -0.04300
Br1908     Br  0.55651580  0.82362247  0.71787083    -0.00300
C1909       C  0.71510037  0.00503458  0.70636702     0.01100
C1910       C  0.72811028  0.01366835  0.68300388     0.03900
C1911       C  0.73763834  0.99500175  0.66435092    -0.12100
C1912       C  0.73362607  0.96768690  0.66869900     0.23200
C1913       C  0.72128700  0.95908357  0.69247187    -0.12700
C1914       C  0.71229367  0.97771042  0.71135099     0.04700
C1915       C  0.74013504  0.94809433  0.64741486     0.27100
C1916       C  0.72015675  0.94009906  0.62946327    -0.13400
C1917       C  0.72482835  0.91921274  0.61143266     0.05200
C1918       C  0.75003977  0.90674628  0.61044797    -0.09300
C1919       C  0.77058352  0.91602484  0.62732191     0.06000
C1920       C  0.76556813  0.93652477  0.64584578    -0.13700
Br1921     Br  0.71563449  0.92176646  0.69862937    -0.05800
Br1922     Br  0.73239991  0.05106730  0.67640975    -0.00200
Br1923     Br  0.69535255  0.90599465  0.59052033     0.00300
Br1924     Br  0.79325050  0.94851095  0.66957451    -0.04100
Br1925     Br  0.69485688  0.96592403  0.74355433     0.00400
Br1926     Br  0.75549997  0.00665917  0.63240085    -0.03400
Br1927     Br  0.68593636  0.95740972  0.63030105    -0.04300
Br1928     Br  0.80562419  0.90066563  0.62514710    -0.00300
C1929       C  0.80048054  0.63273662  0.68246366     0.01100
C1930       C  0.80926333  0.65926136  0.68411034     0.03900
C1931       C  0.80189726  0.67755588  0.66443996    -0.12100
C1932       C  0.78662626  0.66923537  0.64242065     0.23200
C1933       C  0.77805386  0.64268749  0.64053785    -0.12700
C1934       C  0.78482363  0.62445137  0.66068437     0.04700
C1935       C  0.77919845  0.68904825  0.62197138     0.27100
C1936       C  0.75582642  0.70398585  0.62531953    -0.13400
C1937       C  0.75187581  0.72696625  0.61007097     0.05200
C1938       C  0.77141545  0.73522169  0.59166005    -0.09300
C1939       C  0.79360440  0.71893534  0.58655062     0.06000
C1940       C  0.79743938  0.69578671  0.60170183    -0.13700
Br1941     Br  0.75610867  0.63181477  0.61099981    -0.05800
Br1942     Br  0.83184695  0.67058257  0.71316398    -0.00200
Br1943     Br  0.72006086  0.74769888  0.61500428     0.00300
Br1944     Br  0.82867051  0.67431493  0.59627062    -0.04100
Br1945     Br  0.77130272  0.58868122  0.65941916     0.00400
Br1946     Br  0.81158239  0.71445518  0.66831848    -0.03400
Br1947     Br  0.73034741  0.69410236  0.65235615    -0.04300
Br1948     Br  0.82008849  0.72961992  0.56080281    -0.00300
C1949       C  0.69844321  0.78906395  0.49594395     0.01100
C1950       C  0.69229143  0.76179931  0.49690079     0.03900
C1951       C  0.67395829  0.75097477  0.47862890    -0.12100
C1952       C  0.66152304  0.76748534  0.45976385     0.23200
C1953       C  0.66728984  0.79479410  0.45922186    -0.12700
C1954       C  0.68591753  0.80551340  0.47702826     0.04700
C1955       C  0.64480753  0.75613316  0.43830352     0.27100
C1956       C  0.65673528  0.75014229  0.41368089    -0.13400
C1957       C  0.64087726  0.74376935  0.39155504     0.05200
C1958       C  0.61273518  0.74400028  0.39383377    -0.09300
C1959       C  0.60093285  0.74841260  0.41900961     0.06000
C1960       C  0.61700030  0.75439828  0.44124169    -0.13700
Br1961     Br  0.65050227  0.81731874  0.43307582    -0.05800
Br1962     Br  0.70857444  0.73946192  0.52344131    -0.00200
Br1963     Br  0.65841571  0.73707961  0.35784864     0.00300
Br1964     Br  0.60107042  0.76155373  0.47547344    -0.04100
Br1965     Br  0.69570823  0.84247549  0.47398778     0.00400
Br1966     Br  0.66642094  0.71350609  0.47870681    -0.03400
Br1967     Br  0.69494684  0.75298898  0.40988390    -0.04300
Br1968     Br  0.56285440  0.74599088  0.42316196    -0.00300
loop_ 
_geom_bond_atom_site_label_1 
_geom_bond_atom_site_label_2 
_geom_bond_distance 
_geom_bond_site_symmetry_2 
_ccdc_geom_bond_type 
Fe1          O17   2.052       .  S
Fe1           O7   2.057       .  S
Fe1          O14   2.071       .  S
Fe1           O6   2.064       .  S
Fe1          O12   1.967       .  S
Fe2           O5   2.045       .  S
Fe2           O9   2.092       .  S
Fe2          O13   2.071       .  S
Fe2          O18   2.092       .  S
Fe2          O12   1.971       .  S
Fe3          O21   2.076       .  S
Fe3           O8   2.066       .  S
Fe3          O15   2.065       .  S
Fe3           O4   2.090       .  S
Fe3          O12   1.979       .  S
O4           C11   1.274       .  A
O5           C19   1.265       .  A
O6           C11   1.272       .  A
O7           C10   1.266       .  A
O8           C20   1.271       .  A
O9           C22   1.273       .  A
C10          O15   1.266       .  A
C10        C1938   1.474       .  S
C11        C1849   1.482       .  S
O13          C16   1.270       .  A
O14          C16   1.269       .  A
C16        C1918   1.488       .  S
O17          C22   1.267       .  A
O18          C20   1.275       .  A
C19          O21   1.270       .  A
C19        C1949   1.472       .  S
C20        C1869   1.489       .  S
C22        C1889   1.479       .  S
Fe23         O39   2.054       .  S
Fe23         O29   2.081       .  S
Fe23         O36   2.080       .  S
Fe23         O28   2.061       .  S
Fe23         O34   1.955       .  S
Fe24         O27   2.068       .  S
Fe24         O31   2.082       .  S
Fe24         O35   2.070       .  S
Fe24         O40   2.081       .  S
Fe24         O34   1.965       .  S
Fe25         O43   2.084       .  S
Fe25         O30   2.073       .  S
Fe25         O37   2.058       .  S
Fe25         O26   2.094       .  S
Fe25         O34   1.971       .  S
O26          C33   1.272       .  A
O27          C41   1.269       .  A
O28          C33   1.266       .  A
O29          C32   1.275       .  A
O30          C42   1.273       .  A
O31          C44   1.270       .  A
C32          O37   1.270       .  A
C32        C1769   1.475       .  S
C33        C1789   1.493       .  S
O35          C38   1.272       .  A
O36          C38   1.273       .  A
C38        C1878   1.482       .  S
O39          C44   1.267       .  A
O40          C42   1.274       .  A
C41          O43   1.271       .  A
C41        C1818   1.480   1_565  S
C42        C1749   1.489   1_565  S
C44        C1829   1.483       .  S
Fe45         O61   2.080       .  S
Fe45         O51   2.043       .  S
Fe45         O58   2.052       .  S
Fe45         O50   2.062       .  S
Fe45         O56   1.957       .  S
Fe46         O49   2.089       .  S
Fe46         O53   2.064       .  S
Fe46         O57   2.095       .  S
Fe46         O62   2.052       .  S
Fe46         O56   1.965       .  S
Fe47         O65   2.054       .  S
Fe47         O52   2.114       .  S
Fe47         O59   2.097       .  S
Fe47         O48   2.087       .  S
Fe47         O56   1.966       .  S
O48          C55   1.272       .  A
O49          C63   1.271       .  A
O50          C55   1.267       .  A
O51          C54   1.269       .  A
O52          C64   1.282       .  A
O53          C66   1.266       .  A
C54          O59   1.277       .  A
C54        C1649   1.498       .  S
C55        C1669   1.494       .  S
O57          C60   1.275       .  A
O58          C60   1.266       .  A
C60        C1689   1.482       .  S
O61          C66   1.272       .  A
O62          C64   1.266       .  A
C63          O65   1.265       .  A
C63        C1718   1.486   1_455  S
C64        C1858   1.515   1_455  S
C66        C1729   1.475       .  S
Fe67         O83   2.039       .  S
Fe67         O73   2.073       .  S
Fe67         O80   2.069       .  S
Fe67         O72   2.052       .  S
Fe67         O78   1.961       .  S
Fe68         O71   2.069       .  S
Fe68         O75   2.104       .  S
Fe68         O79   2.065       .  S
Fe68         O84   2.091       .  S
Fe68         O78   1.967       .  S
Fe69         O87   2.083       .  S
Fe69         O74   2.073       .  S
Fe69         O81   2.066       .  S
Fe69         O70   2.099       .  S
Fe69         O78   1.970       .  S
O70          C77   1.273       .  A
O71          C85   1.268       .  A
O72          C77   1.265       .  A
O73          C76   1.270       .  A
O74          C86   1.274       .  A
O75          C88   1.277       .  A
C76          O81   1.270       .  A
C76        C1538   1.473       .  S
C77        C1558   1.489       .  S
O79          C82   1.268       .  A
O80          C82   1.268       .  A
C82        C1598   1.485       .  S
O83          C88   1.266       .  A
O84          C86   1.277       .  A
C85          O87   1.271       .  A
C85        C1578   1.483       .  S
C86        C1618   1.484       .  S
C88        C1629   1.479       .  S
Fe89        O105   2.066       .  S
Fe89         O95   2.047       .  S
Fe89        O102   2.072       .  S
Fe89         O94   2.056       .  S
Fe89        O100   1.961       .  S
Fe90         O93   2.069       .  S
Fe90         O97   2.071       .  S
Fe90        O101   2.071       .  S
Fe90        O106   2.084       .  S
Fe90        O100   1.969       .  S
Fe91        O109   2.079       .  S
Fe91         O96   2.076       .  S
Fe91        O103   2.080       .  S
Fe91         O92   2.090       .  S
Fe91        O100   1.968       .  S
O92          C99   1.271       .  A
O93         C107   1.268       .  A
O94          C99   1.265       .  A
O95          C98   1.268       .  A
O96         C108   1.275       .  A
O97         C110   1.272       .  A
C98         O103   1.272       .  A
C98        C1458   1.483       .  S
C99        C1609   1.509       .  S
O101        C104   1.268       .  A
O102        C104   1.267       .  A
C104       C1489   1.500       .  S
O105        C110   1.271       .  A
O106        C108   1.275       .  A
C107        O109   1.268       .  A
C107       C1509   1.490       .  S
C108       C1698   1.496   1_545  S
C110       C1478   1.481       .  S
Fe111       O127   2.045       .  S
Fe111       O117   2.060       .  S
Fe111       O124   2.067       .  S
Fe111       O116   2.050       .  S
Fe111       O122   1.953       .  S
Fe112       O115   2.046       .  S
Fe112       O119   2.093       .  S
Fe112       O123   2.071       .  S
Fe112       O128   2.094       .  S
Fe112       O122   1.962       .  S
Fe113       O131   2.081       .  S
Fe113       O118   2.059       .  S
Fe113       O125   2.061       .  S
Fe113       O114   2.097       .  S
Fe113       O122   1.967       .  S
O114        C121   1.278       .  A
O115        C129   1.264       .  A
O116        C121   1.270       .  A
O117        C120   1.265       .  A
O118        C130   1.269       .  A
O119        C132   1.275       .  A
C120        O125   1.265       .  A
C120       C1429   1.473       .  S
C121       C1758   1.480       .  S
O123        C126   1.268       .  A
O124        C126   1.265       .  A
C126       C1389   1.483       .  S
O127        C132   1.269       .  A
O128        C130   1.276       .  A
C129        O131   1.272       .  A
C129       C1409   1.475       .  S
C130       C1589   1.479   1_655  S
C132       C1369   1.475       .  S
Fe133       O149   2.048       .  S
Fe133       O139   2.075       .  S
Fe133       O146   2.059       .  S
Fe133       O138   2.059       .  S
Fe133       O144   1.957       .  S
Fe134       O137   2.085       .  S
Fe134       O141   2.078       .  S
Fe134       O145   2.101       .  S
Fe134       O150   2.086       .  S
Fe134       O144   1.968       .  S
Fe135       O153   2.065       .  S
Fe135       O140   2.068       .  S
Fe135       O147   2.063       .  S
Fe135       O136   2.070       .  S
Fe135       O144   1.965       .  S
O136        C143   1.268       .  A
O137        C151   1.272       .  A
O138        C143   1.266       .  A
O139        C142   1.270       .  A
O140        C152   1.272       .  A
O141        C154   1.271       .  A
C142        O147   1.269       .  A
C142       C1329   1.471       .  S
C143       C1358   1.482       .  S
O145        C148   1.277       .  A
O146        C148   1.267       .  A
C148       C1289   1.496       .  S
O149        C154   1.269       .  A
O150        C152   1.276       .  A
C151        O153   1.266       .  A
C151       C1398   1.486       .  S
C152       C1278   1.499       .  S
C154       C1318   1.467       .  S
Fe155       O171   2.042       .  S
Fe155       O161   2.068       .  S
Fe155       O168   2.081       .  S
Fe155       O160   2.064       .  S
Fe155       O166   1.961       .  S
Fe156       O159   2.060       .  S
Fe156       O163   2.086       .  S
Fe156       O167   2.065       .  S
Fe156       O172   2.083       .  S
Fe156       O166   1.962       .  S
Fe157       O175   2.088       .  S
Fe157       O162   2.063       .  S
Fe157       O169   2.065       .  S
Fe157       O158   2.092       .  S
Fe157       O166   1.964       .  S
O158        C165   1.275       .  A
O159        C173   1.268       .  A
O160        C165   1.274       .  A
O161        C164   1.268       .  A
O162        C174   1.270       .  A
O163        C176   1.273       .  A
C164        O169   1.267       .  A
C164       C1378   1.476       .  S
C165       C1269   1.481       .  S
O167        C170   1.267       .  A
O168        C170   1.269       .  A
C170       C1229   1.492       .  S
O171        C176   1.268       .  A
O172        C174   1.273       .  A
C173        O175   1.273       .  A
C173       C1258   1.485       .  S
C174       C1198   1.483       .  S
C176       C1209   1.466       .  S
Fe177       O193   2.038       .  S
Fe177       O183   2.085       .  S
Fe177       O190   2.090       .  S
Fe177       O182   2.059       .  S
Fe177       O188   1.942       .  S
Fe178       O181   2.062       .  S
Fe178       O185   2.097       .  S
Fe178       O189   2.072       .  S
Fe178       O194   2.105       .  S
Fe178       O188   1.955       .  S
Fe179       O197   2.078       .  S
Fe179       O184   2.079       .  S
Fe179       O191   2.074       .  S
Fe179       O180   2.090       .  S
Fe179       O188   1.958       .  S
O180        C187   1.270       .  A
O181        C195   1.266       .  A
O182        C187   1.265       .  A
O183        C186   1.275       .  A
O184        C196   1.276       .  A
O185        C198   1.275       .  A
C186        O191   1.274       .  A
C186       C1149   1.479       .  S
C187       C1169   1.491       .  S
O189        C192   1.272       .  A
O190        C192   1.275       .  A
C192       C1109   1.485       .  S
O193        C198   1.263       .  A
O194        C196   1.280       .  A
C195        O197   1.268       .  A
C195       C1129   1.473       .  S
C196       C1089   1.515       .  S
C198       C1658   1.484       .  S
Fe199       O215   2.044       .  S
Fe199       O205   2.052       .  S
Fe199       O212   2.063       .  S
Fe199       O204   2.057       .  S
Fe199       O210   1.964       .  S
Fe200       O203   2.068       .  S
Fe200       O207   2.083       .  S
Fe200       O211   2.087       .  S
Fe200       O216   2.088       .  S
Fe200       O210   1.964       .  S
Fe201       O219   2.089       .  S
Fe201       O206   2.069       .  S
Fe201       O213   2.070       .  S
Fe201       O202   2.105       .  S
Fe201       O210   1.970       .  S
O202        C209   1.278       .  A
O203        C217   1.270       .  A
O204        C209   1.271       .  A
O205        C208   1.264       .  A
O206        C218   1.272       .  A
O207        C220   1.273       .  A
C208        O213   1.266       .  A
C208       C1078   1.479       .  S
C209       C1098   1.482       .  S
O211        C214   1.272       .  A
O212        C214   1.265       .  A
C214       C1569   1.497       .  S
O215        C220   1.267       .  A
O216        C218   1.275       .  A
C217        O219   1.273       .  A
C217       C1049   1.493       .  S
C218       C1298   1.486       .  S
C220       C1449   1.464       .  S
Fe221       O237   2.031       .  S
Fe221       O227   2.091       .  S
Fe221       O234   2.067       .  S
Fe221       O226   2.042       .  S
Fe221       O232   1.951       .  S
Fe222       O225   2.080       .  S
Fe222       O229   2.095       .  S
Fe222       O233   2.086       .  S
Fe222       O238   2.090       .  S
Fe222       O232   1.965       .  S
Fe223       O241   2.069       .  S
Fe223       O228   2.073       .  S
Fe223       O235   2.068       .  S
Fe223       O224   2.088       .  S
Fe223       O232   1.967       .  S
O224        C231   1.270       .  A
O225        C239   1.272       .  A
O226        C231   1.259       .  A
O227        C230   1.276       .  A
O228        C240   1.277       .  A
O229        C242   1.274       .  A
C230        O235   1.271       .  A
C230       C1838   1.486       .  S
C231       C1958   1.482       .  S
O233        C236   1.274       .  A
O234        C236   1.269       .  A
C236       C1189   1.489       .  S
O237        C242   1.263       .  A
O238        C240   1.275       .  A
C239        O241   1.267       .  A
C239       C1029   1.479       .  S
C240        C989   1.490       .  S
C242       C1009   1.472       .  S
Fe243       O259   2.051       .  S
Fe243       O249   2.066       .  S
Fe243       O256   2.068       .  S
Fe243       O248   2.053       .  S
Fe243       O254   1.947       .  S
Fe244       O247   2.047       .  S
Fe244       O251   2.086       .  S
Fe244       O255   2.066       .  S
Fe244       O260   2.099       .  S
Fe244       O254   1.953       .  S
Fe245       O263   2.112       .  S
Fe245       O250   2.068       .  S
Fe245       O257   2.082       .  S
Fe245       O246   2.101       .  S
Fe245       O254   1.959       .  S
O246        C253   1.277       .  A
O247        C261   1.264       .  A
O248        C253   1.269       .  A
O249        C252   1.268       .  A
O250        C262   1.272       .  A
O251        C264   1.273       .  A
C252        O257   1.273       .  A
C252        C969   1.479       .  S
C253        C998   1.486       .  S
O255        C258   1.269       .  A
O256        C258   1.268       .  A
C258        C958   1.476       .  S
O259        C264   1.269       .  A
O260        C262   1.276       .  A
C261        O263   1.277       .  A
C261       C1678   1.501       .  S
C262       C1118   1.491       .  S
C264        C938   1.478       .  S
Fe265       O281   2.043       .  S
Fe265       O271   2.061       .  S
Fe265       O278   2.059       .  S
Fe265       O270   2.054       .  S
Fe265       O276   1.954       .  S
Fe266       O269   2.056       .  S
Fe266       O273   2.094       .  S
Fe266       O277   2.075       .  S
Fe266       O282   2.095       .  S
Fe266       O276   1.963       .  S
Fe267       O285   2.089       .  S
Fe267       O272   2.071       .  S
Fe267       O279   2.074       .  S
Fe267       O268   2.098       .  S
Fe267       O276   1.969       .  S
O268        C275   1.275       .  A
O269        C283   1.266       .  A
O270        C275   1.268       .  A
O271        C274   1.267       .  A
O272        C284   1.273       .  A
O273        C286   1.276       .  A
C274        O279   1.270       .  A
C274        C909   1.473       .  S
C275        C869   1.488       .  S
O277        C280   1.269       .  A
O278        C280   1.265       .  A
C280       C1709   1.486       .  S
O281        C286   1.268       .  A
O282        C284   1.277       .  A
C283        O285   1.273       .  A
C283       C1349   1.484       .  S
C284        C889   1.483       .  S
C286       C1929   1.473       .  S
Fe287       O303   2.033       .  S
Fe287       O293   2.104       .  S
Fe287       O300   2.083       .  S
Fe287       O292   2.052       .  S
Fe287       O298   1.951       .  S
Fe288       O291   2.049       .  S
Fe288       O295   2.101       .  S
Fe288       O299   2.067       .  S
Fe288       O304   2.101       .  S
Fe288       O298   1.961       .  S
Fe289       O307   2.092       .  S
Fe289       O294   2.061       .  S
Fe289       O301   2.059       .  S
Fe289       O290   2.087       .  S
Fe289       O298   1.959       .  S
O290        C297   1.271       .  A
O291        C305   1.263       .  A
O292        C297   1.261       .  A
O293        C296   1.285       .  A
O294        C306   1.271       .  A
O295        C308   1.276       .  A
C296        O301   1.266       .  A
C296        C838   1.496       .  S
C297        C849   1.490       .  S
O299        C302   1.269       .  A
O300        C302   1.274       .  A
C302        C898   1.490       .  S
O303        C308   1.261       .  A
O304        C306   1.279       .  A
C305        O307   1.273       .  A
C305       C1498   1.484       .  S
C306        C809   1.496   1_655  S
C308       C1338   1.498       .  S
Fe309       O325   2.043       .  S
Fe309       O315   2.062       .  S
Fe309       O322   2.062       .  S
Fe309       O314   2.066       .  S
Fe309       O320   1.969       .  S
Fe310       O313   2.066       .  S
Fe310       O317   2.081       .  S
Fe310       O321   2.071       .  S
Fe310       O326   2.075       .  S
Fe310       O320   1.976       .  S
Fe311       O329   2.065       .  S
Fe311       O316   2.081       .  S
Fe311       O323   2.066       .  S
Fe311       O312   2.082       .  S
Fe311       O320   1.970       .  S
O312        C319   1.270       .  A
O313        C327   1.267       .  A
O314        C319   1.267       .  A
O315        C318   1.269       .  A
O316        C328   1.276       .  A
O317        C330   1.270       .  A
C318        O323   1.271       .  A
C318       C1018   1.477       .  S
C319       C1249   1.490       .  S
O321        C324   1.270       .  A
O322        C324   1.270       .  A
C324        C769   1.484       .  S
O325        C330   1.265       .  A
O326        C328   1.274       .  A
C327        O329   1.266       .  A
C327        C798   1.476   1_554  S
C328        C878   1.487   1_554  S
C330       C1778   1.476       .  S
Fe331       O347   2.040       .  S
Fe331       O337   2.093       .  S
Fe331       O344   2.070       .  S
Fe331       O336   2.047       .  S
Fe331       O342   1.949       .  S
Fe332       O335   2.067       .  S
Fe332       O339   2.098       .  S
Fe332       O343   2.060       .  S
Fe332       O348   2.087       .  S
Fe332       O342   1.961       .  S
Fe333       O351   2.071       .  S
Fe333       O338   2.064       .  S
Fe333       O345   2.060       .  S
Fe333       O334   2.086       .  S
Fe333       O342   1.957       .  S
O334        C341   1.271       .  A
O335        C349   1.269       .  A
O336        C341   1.263       .  A
O337        C340   1.275       .  A
O338        C350   1.272       .  A
O339        C352   1.274       .  A
C340        O345   1.269       .  A
C340       C1638   1.489       .  S
C341       C1418   1.482       .  S
O343        C346   1.268       .  A
O344        C346   1.271       .  A
C346        C718   1.477       .  S
O347        C352   1.266       .  A
O348        C350   1.275       .  A
C349        O351   1.269       .  A
C349        C949   1.477       .  S
C350        C738   1.480       .  S
C352        C749   1.477       .  S
Fe353       O369   2.044       .  S
Fe353       O359   2.076       .  S
Fe353       O366   2.081       .  S
Fe353       O358   2.057       .  S
Fe353       O364   1.953       .  S
Fe354       O357   2.066       .  S
Fe354       O361   2.089       .  S
Fe354       O365   2.073       .  S
Fe354       O370   2.093       .  S
Fe354       O364   1.951       .  S
Fe355       O373   2.084       .  S
Fe355       O360   2.052       .  S
Fe355       O367   2.057       .  S
Fe355       O356   2.093       .  S
Fe355       O364   1.957       .  S
O356        C363   1.275       .  A
O357        C371   1.268       .  A
O358        C363   1.270       .  A
O359        C362   1.270       .  A
O360        C372   1.269       .  A
O361        C374   1.275       .  A
C362        O367   1.265       .  A
C362        C929   1.467       .  S
C363        C729   1.485       .  S
O365        C368   1.269       .  A
O366        C368   1.269       .  A
C368        C689   1.493       .  S
O369        C374   1.269       .  A
O370        C372   1.276       .  A
C371        O373   1.272       .  A
C371       C1798   1.492       .  S
C372        C778   1.472   1_455  S
C374        C669   1.468       .  S
Fe375       O391   2.047       .  S
Fe375       O381   2.051       .  S
Fe375       O388   2.061       .  S
Fe375       O380   2.060       .  S
Fe375       O386   1.960       .  S
Fe376       O379   2.051       .  S
Fe376       O383   2.084       .  S
Fe376       O387   2.071       .  S
Fe376       O392   2.080       .  S
Fe376       O386   1.964       .  S
Fe377       O395   2.093       .  S
Fe377       O382   2.064       .  S
Fe377       O389   2.073       .  S
Fe377       O378   2.099       .  S
Fe377       O386   1.970       .  S
O378        C385   1.278       .  A
O379        C393   1.265       .  A
O380        C385   1.273       .  A
O381        C384   1.263       .  A
O382        C394   1.269       .  A
O383        C396   1.273       .  A
C384        O389   1.268       .  A
C384       C1469   1.476       .  S
C385        C818   1.482       .  S
O387        C390   1.267       .  A
O388        C390   1.265       .  A
C390       C1138   1.487       .  S
O391        C396   1.269       .  A
O392        C394   1.273       .  A
C393        O395   1.274       .  A
C393        C649   1.491       .  S
C394        C709   1.474   1_556  S
C396       C1069   1.467       .  S
Fe397       O413   2.050       .  S
Fe397       O403   2.073       .  S
Fe397       O410   2.073       .  S
Fe397       O402   2.063       .  S
Fe397       O408   1.963       .  S
Fe398       O401   2.062       .  S
Fe398       O405   2.093       .  S
Fe398       O409   2.070       .  S
Fe398       O414   2.093       .  S
Fe398       O408   1.965       .  S
Fe399       O417   2.084       .  S
Fe399       O404   2.068       .  S
Fe399       O411   2.077       .  S
Fe399       O400   2.088       .  S
Fe399       O408   1.964       .  S
O400        C407   1.274       .  A
O401        C415   1.268       .  A
O402        C407   1.272       .  A
O403        C406   1.269       .  A
O404        C416   1.272       .  A
O405        C418   1.275       .  A
C406        O411   1.270       .  A
C406       C1898   1.487       .  S
C407        C609   1.484       .  S
O409        C412   1.268       .  A
O410        C412   1.268       .  A
C412        C789   1.488       .  S
O413        C418   1.270       .  A
O414        C416   1.275       .  A
C415        O417   1.272       .  A
C415       C1178   1.490       .  S
C416        C629   1.488       .  S
C418        C918   1.474       .  S
Fe419       O435   2.048       .  S
Fe419       O425   2.092       .  S
Fe419       O432   2.079       .  S
Fe419       O424   2.050       .  S
Fe419       O430   1.957       .  S
Fe420       O423   2.076       .  S
Fe420       O427   2.096       .  S
Fe420       O431   2.072       .  S
Fe420       O436   2.093       .  S
Fe420       O430   1.958       .  S
Fe421       O439   2.074       .  S
Fe421       O426   2.070       .  S
Fe421       O433   2.065       .  S
Fe421       O422   2.098       .  S
Fe421       O430   1.961       .  S
O422        C429   1.274       .  A
O423        C437   1.269       .  A
O424        C429   1.265       .  A
O425        C428   1.272       .  A
O426        C438   1.275       .  A
O427        C440   1.277       .  A
C428        O433   1.268       .  A
C428       C1738   1.502       .  S
C429       C1518   1.482       .  S
O431        C434   1.269       .  A
O432        C434   1.270       .  A
C434        C638   1.485       .  S
O435        C440   1.269       .  A
O436        C438   1.279       .  A
C437        O439   1.268       .  A
C437        C698   1.484       .  S
C438        C589   1.484   1_556  S
C440       C1158   1.481       .  S
Fe441       O457   2.074       .  S
Fe441       O447   2.051       .  S
Fe441       O454   2.058       .  S
Fe441       O446   2.075       .  S
Fe441       O452   1.963       .  S
Fe442       O445   2.069       .  S
Fe442       O449   2.085       .  S
Fe442       O453   2.087       .  S
Fe442       O458   2.086       .  S
Fe442       O452   1.971       .  S
Fe443       O461   2.072       .  S
Fe443       O448   2.076       .  S
Fe443       O455   2.065       .  S
Fe443       O444   2.087       .  S
Fe443       O452   1.962       .  S
O444        C451   1.272       .  A
O445        C459   1.267       .  A
O446        C451   1.272       .  A
O447        C450   1.263       .  A
O448        C460   1.273       .  A
O449        C462   1.272       .  A
C450        O455   1.269       .  A
C450       C1309   1.487       .  S
C451       C1058   1.492       .  S
O453        C456   1.273       .  A
O454        C456   1.267       .  A
C456        C569   1.479       .  S
O457        C462   1.273       .  A
O458        C460   1.276       .  A
C459        O461   1.267       .  A
C459       C1909   1.478       .  S
C460        C618   1.500   1_545  S
C462        C829   1.496       .  S
Fe463       O479   2.037       .  S
Fe463       O469   2.095       .  S
Fe463       O476   2.080       .  S
Fe463       O468   2.056       .  S
Fe463       O474   1.945       .  S
Fe464       O467   2.072       .  S
Fe464       O471   2.099       .  S
Fe464       O475   2.068       .  S
Fe464       O480   2.093       .  S
Fe464       O474   1.958       .  S
Fe465       O483   2.065       .  S
Fe465       O470   2.064       .  S
Fe465       O477   2.068       .  S
Fe465       O466   2.078       .  S
Fe465       O474   1.957       .  S
O466        C473   1.268       .  A
O467        C481   1.269       .  A
O468        C473   1.264       .  A
O469        C472   1.277       .  A
O470        C482   1.274       .  A
O471        C484   1.275       .  A
C472        O477   1.272       .  A
C472        C758   1.491       .  S
C473        C658   1.477       .  S
O475        C478   1.270       .  A
O476        C478   1.272       .  A
C478        C529   1.481       .  S
O479        C484   1.265       .  A
O480        C482   1.279       .  A
C481        O483   1.266       .  A
C481       C1238   1.474       .  S
C482        C549   1.489       .  S
C484       C1529   1.486       .  S
Fe485       O501   2.051       .  S
Fe485       O491   2.064       .  S
Fe485       O498   2.071       .  S
Fe485       O490   2.065       .  S
Fe485       O496   1.962       .  S
Fe486       O489   2.068       .  S
Fe486       O493   2.089       .  S
Fe486       O497   2.073       .  S
Fe486       O502   2.091       .  S
Fe486       O496   1.967       .  S
Fe487       O505   2.084       .  S
Fe487       O492   2.055       .  S
Fe487       O499   2.053       .  S
Fe487       O488   2.086       .  S
Fe487       O496   1.969       .  S
O488        C495   1.273       .  A
O489        C503   1.268       .  A
O490        C495   1.271       .  A
O491        C494   1.268       .  A
O492        C504   1.269       .  A
O493        C506   1.274       .  A
C494        O499   1.266       .  A
C494       C1218   1.468       .  S
C495        C558   1.485       .  S
O497        C500   1.270       .  A
O498        C500   1.269       .  A
C500       C1809   1.489       .  S
O501        C506   1.269       .  A
O502        C504   1.276       .  A
C503        O505   1.270       .  A
C503        C858   1.488   1_554  S
C504        C578   1.483   1_554  S
C506       C1438   1.475       .  S
Fe507       O523   2.056       .  S
Fe507       O513   2.057       .  S
Fe507       O520   2.062       .  S
Fe507       O512   2.066       .  S
Fe507       O518   1.954       .  S
Fe508       O511   2.059       .  S
Fe508       O515   2.101       .  S
Fe508       O519   2.077       .  S
Fe508       O524   2.099       .  S
Fe508       O518   1.959       .  S
Fe509       O527   2.093       .  S
Fe509       O514   2.065       .  S
Fe509       O521   2.077       .  S
Fe509       O510   2.089       .  S
Fe509       O518   1.963       .  S
O510        C517   1.273       .  A
O511        C525   1.267       .  A
O512        C517   1.271       .  A
O513        C516   1.266       .  A
O514        C526   1.273       .  A
O515        C528   1.277       .  A
C516        O521   1.272       .  A
C516        C678   1.470       .  S
C517        C598   1.489       .  S
O519        C522   1.269       .  A
O520        C522   1.266       .  A
C522       C1038   1.490       .  S
O523        C528   1.271       .  A
O524        C526   1.278       .  A
C525        O527   1.272       .  A
C525       C1549   1.491   1_565  S
C526        C538   1.493   1_565  S
C528        C978   1.484       .  S
C529        C530   1.412       .  A
C529        C534   1.408       .  A
C530        C531   1.408       .  A
C530       Br542   1.931       .  S
C531        C532   1.412       .  A
C531       Br546   1.932       .  S
C532        C535   1.496       .  S
C532        C533   1.414       .  A
C533        C534   1.412       .  A
C533       Br541   1.929       .  S
C534       Br545   1.928       .  S
C535        C536   1.412       .  A
C535        C540   1.410       .  A
C536        C537   1.414       .  A
C536       Br547   1.931       .  S
C537        C538   1.415       .  A
C537       Br543   1.930   1_545  S
C538        C539   1.418       .  A
C539        C540   1.409       .  A
C539       Br548   1.935       .  S
C540       Br544   1.934       .  S
C549        C550   1.415       .  A
C549        C554   1.418       .  A
C550        C551   1.409       .  A
C550       Br562   1.932       .  S
C551        C552   1.408       .  A
C551       Br566   1.929       .  S
C552        C555   1.489       .  S
C552        C553   1.408       .  A
C553        C554   1.410       .  A
C553       Br561   1.931       .  S
C554       Br565   1.933       .  S
C555        C556   1.409       .  A
C555        C560   1.409       .  A
C556        C557   1.408       .  A
C556       Br567   1.933       .  S
C557        C558   1.415       .  A
C557       Br563   1.932       .  S
C558        C559   1.413       .  A
C559        C560   1.412       .  A
C559       Br568   1.928       .  S
C560       Br564   1.928       .  S
C569        C570   1.410       .  A
C569        C574   1.410       .  A
C570        C571   1.401       .  A
C570       Br582   1.923       .  S
C571        C572   1.408       .  A
C571       Br586   1.936       .  S
C572        C575   1.488       .  S
C572        C573   1.413       .  A
C573        C574   1.415       .  A
C573       Br581   1.926       .  S
C574       Br585   1.926       .  S
C575        C576   1.409       .  A
C575        C580   1.409       .  A
C576        C577   1.412       .  A
C576       Br587   1.927       .  S
C577        C578   1.413       .  A
C577       Br583   1.928   1_556  S
C578        C579   1.414       .  A
C579        C580   1.405       .  A
C579       Br588   1.934       .  S
C580       Br584   1.932       .  S
C589        C590   1.410       .  A
C589        C594   1.413       .  A
C590        C591   1.410       .  A
C590       Br602   1.928   1_554  S
C591        C592   1.411       .  A
C591       Br606   1.927       .  S
C592        C595   1.493       .  S
C592        C593   1.411       .  A
C593        C594   1.410       .  A
C593       Br601   1.931       .  S
C594       Br605   1.930       .  S
C595        C596   1.409       .  A
C595        C600   1.411       .  A
C596        C597   1.407       .  A
C596       Br607   1.933       .  S
C597        C598   1.416       .  A
C597       Br603   1.934       .  S
C598        C599   1.416       .  A
C599        C600   1.414       .  A
C599       Br608   1.931       .  S
C600       Br604   1.929       .  S
C609        C610   1.414       .  A
C609        C614   1.412       .  A
C610        C611   1.407       .  A
C610       Br622   1.933       .  S
C611        C612   1.410       .  A
C611       Br626   1.932       .  S
C612        C615   1.492       .  S
C612        C613   1.411       .  A
C613        C614   1.412       .  A
C613       Br621   1.927       .  S
C614       Br625   1.930       .  S
C615        C616   1.406       .  A
C615        C620   1.408       .  A
C616        C617   1.409       .  A
C616       Br627   1.931       .  S
C617        C618   1.419       .  A
C617       Br623   1.931   1_565  S
C618        C619   1.424       .  A
C619        C620   1.414       .  A
C619       Br628   1.934       .  S
C620       Br624   1.932       .  S
C629        C630   1.413       .  A
C629        C634   1.414       .  A
C630        C631   1.415       .  A
C630       Br642   1.928       .  S
C631        C632   1.412       .  A
C631       Br646   1.928       .  S
C632        C635   1.493       .  S
C632        C633   1.408       .  A
C633        C634   1.407       .  A
C633       Br641   1.932       .  S
C634       Br645   1.932       .  S
C635        C636   1.408       .  A
C635        C640   1.412       .  A
C636        C637   1.408       .  A
C636       Br647   1.932       .  S
C637        C638   1.414       .  A
C637       Br643   1.929       .  S
C638        C639   1.411       .  A
C639        C640   1.414       .  A
C639       Br648   1.928       .  S
C640       Br644   1.927       .  S
C649        C650   1.421   1_556  A
C649        C654   1.416       .  A
C650        C651   1.407       .  A
C650       Br662   1.935       .  S
C651        C652   1.406       .  A
C651       Br666   1.934       .  S
C652        C655   1.486       .  S
C652        C653   1.407       .  A
C653        C654   1.411   1_554  A
C653       Br661   1.929       .  S
C654       Br665   1.930       .  S
C655        C656   1.410       .  A
C655        C660   1.408       .  A
C656        C657   1.412       .  A
C656       Br667   1.927       .  S
C657        C658   1.412       .  A
C657       Br663   1.929       .  S
C658        C659   1.412       .  A
C659        C660   1.403       .  A
C659       Br668   1.933       .  S
C660       Br664   1.933       .  S
C669        C670   1.408       .  A
C669        C674   1.410       .  A
C670        C671   1.407       .  A
C670       Br682   1.929       .  S
C671        C672   1.410       .  A
C671       Br686   1.927       .  S
C672        C675   1.482       .  S
C672        C673   1.410       .  A
C673        C674   1.404       .  A
C673       Br681   1.933       .  S
C674       Br685   1.933       .  S
C675        C676   1.409       .  A
C675        C680   1.410       .  A
C676        C677   1.406       .  A
C676       Br687   1.932       .  S
C677        C678   1.411       .  A
C677       Br683   1.929       .  S
C678        C679   1.409       .  A
C679        C680   1.407       .  A
C679       Br688   1.930       .  S
C680       Br684   1.931       .  S
C689        C690   1.418       .  A
C689        C694   1.417       .  A
C690        C691   1.408       .  A
C690       Br702   1.933       .  S
C691        C692   1.408       .  A
C691       Br706   1.933       .  S
C692        C695   1.494       .  S
C692        C693   1.410       .  A
C693        C694   1.415       .  A
C693       Br701   1.929       .  S
C694       Br705   1.930       .  S
C695        C696   1.411       .  A
C695        C700   1.411       .  A
C696        C697   1.412   1_554  A
C696       Br707   1.929   1_554  S
C697        C698   1.411       .  A
C697       Br703   1.928       .  S
C698        C699   1.412   1_556  A
C699        C700   1.411       .  A
C699       Br708   1.930       .  S
C700       Br704   1.930       .  S
C709        C710   1.408       .  A
C709        C714   1.410       .  A
C710        C711   1.410       .  A
C710       Br722   1.925   1_554  S
C711        C712   1.410       .  A
C711       Br726   1.927       .  S
C712        C715   1.485       .  S
C712        C713   1.409       .  A
C713        C714   1.405       .  A
C713       Br721   1.930       .  S
C714       Br725   1.930       .  S
C715        C716   1.410       .  A
C715        C720   1.409       .  A
C716        C717   1.407       .  A
C716       Br727   1.931       .  S
C717        C718   1.413       .  A
C717       Br723   1.933       .  S
C718        C719   1.410       .  A
C719        C720   1.407       .  A
C719       Br728   1.929       .  S
C720       Br724   1.928       .  S
C729        C730   1.415       .  A
C729        C734   1.415       .  A
C730        C731   1.413       .  A
C730       Br742   1.931       .  S
C731        C732   1.410       .  A
C731       Br746   1.928       .  S
C732        C735   1.487       .  S
C732        C733   1.408       .  A
C733        C734   1.403       .  A
C733       Br741   1.936       .  S
C734       Br745   1.933       .  S
C735        C736   1.409       .  A
C735        C740   1.409       .  A
C736        C737   1.407       .  A
C736       Br747   1.930       .  S
C737        C738   1.411       .  A
C737       Br743   1.931       .  S
C738        C739   1.412       .  A
C739        C740   1.410       .  A
C739       Br748   1.929       .  S
C740       Br744   1.929       .  S
C749        C750   1.412       .  A
C749        C754   1.408       .  A
C750        C751   1.404       .  A
C750       Br762   1.932       .  S
C751        C752   1.409       .  A
C751       Br766   1.934       .  S
C752        C755   1.487       .  S
C752        C753   1.411       .  A
C753        C754   1.412       .  A
C753       Br761   1.925       .  S
C754       Br765   1.927       .  S
C755        C756   1.406       .  A
C755        C760   1.407       .  A
C756        C757   1.407       .  A
C756       Br767   1.933       .  S
C757        C758   1.417       .  A
C757       Br763   1.929       .  S
C758        C759   1.418       .  A
C759        C760   1.412       .  A
C759       Br768   1.930       .  S
C760       Br764   1.928       .  S
C769        C770   1.417       .  A
C769        C774   1.413       .  A
C770        C771   1.407       .  A
C770       Br782   1.932       .  S
C771        C772   1.407       .  A
C771       Br786   1.932       .  S
C772        C775   1.485       .  S
C772        C773   1.409       .  A
C773        C774   1.409       .  A
C773       Br781   1.928       .  S
C774       Br785   1.931       .  S
C775        C776   1.410       .  A
C775        C780   1.409       .  A
C776        C777   1.410       .  A
C776       Br787   1.926       .  S
C777        C778   1.408       .  A
C777       Br783   1.926   1_655  S
C778        C779   1.409       .  A
C779        C780   1.403       .  A
C779       Br788   1.929       .  S
C780       Br784   1.929       .  S
C789        C790   1.415       .  A
C789        C794   1.417       .  A
C790        C791   1.412       .  A
C790       Br802   1.930       .  S
C791        C792   1.409       .  A
C791       Br806   1.928       .  S
C792        C795   1.490       .  S
C792        C793   1.408       .  A
C793        C794   1.407       .  A
C793       Br801   1.933       .  S
C794       Br805   1.933       .  S
C795        C796   1.411       .  A
C795        C800   1.410       .  A
C796        C797   1.408       .  A
C796       Br807   1.929       .  S
C797        C798   1.409       .  A
C797       Br803   1.932       .  S
C798        C799   1.410   1_556  A
C799        C800   1.410   1_554  A
C799       Br808   1.930       .  S
C800       Br804   1.928   1_556  S
C809        C810   1.417       .  A
C809        C814   1.423       .  A
C810        C811   1.409       .  A
C810       Br822   1.932   1_455  S
C811        C812   1.407       .  A
C811       Br826   1.931       .  S
C812        C815   1.488       .  S
C812        C813   1.406       .  A
C813        C814   1.411       .  A
C813       Br821   1.932       .  S
C814       Br825   1.936   1_455  S
C815        C816   1.407       .  A
C815        C820   1.410       .  A
C816        C817   1.405       .  A
C816       Br827   1.932       .  S
C817        C818   1.413       .  A
C817       Br823   1.930       .  S
C818        C819   1.411       .  A
C819        C820   1.412       .  A
C819       Br828   1.925       .  S
C820       Br824   1.928       .  S
C829        C830   1.416       .  A
C829        C834   1.409       .  A
C830        C831   1.413       .  A
C830       Br842   1.930       .  S
C831        C832   1.410       .  A
C831       Br846   1.927       .  S
C832        C835   1.491       .  S
C832        C833   1.409       .  A
C833        C834   1.407       .  A
C833       Br841   1.928       .  S
C834       Br845   1.924       .  S
C835        C836   1.410       .  A
C835        C840   1.406       .  A
C836        C837   1.410       .  A
C836       Br847   1.931       .  S
C837        C838   1.412       .  A
C837       Br843   1.930       .  S
C838        C839   1.422       .  A
C839        C840   1.412       .  A
C839       Br848   1.928       .  S
C840       Br844   1.930       .  S
C849        C850   1.419       .  A
C849        C854   1.412       .  A
C850        C851   1.408       .  A
C850       Br862   1.934       .  S
C851        C852   1.407       .  A
C851       Br866   1.931       .  S
C852        C855   1.491       .  S
C852        C853   1.410       .  A
C853        C854   1.411       .  A
C853       Br861   1.926       .  S
C854       Br865   1.931       .  S
C855        C856   1.409       .  A
C855        C860   1.410       .  A
C856        C857   1.413       .  A
C856       Br867   1.929       .  S
C857        C858   1.415       .  A
C857       Br863   1.928   1_556  S
C858        C859   1.413       .  A
C859        C860   1.409       .  A
C859       Br868   1.931       .  S
C860       Br864   1.933       .  S
C869        C870   1.413       .  A
C869        C874   1.418       .  A
C870        C871   1.412       .  A
C870       Br882   1.930       .  S
C871        C872   1.410       .  A
C871       Br886   1.927       .  S
C872        C875   1.491       .  S
C872        C873   1.408       .  A
C873        C874   1.407       .  A
C873       Br881   1.933       .  S
C874       Br885   1.935       .  S
C875        C876   1.410       .  A
C875        C880   1.409       .  A
C876        C877   1.411       .  A
C876       Br887   1.931       .  S
C877        C878   1.415       .  A
C877       Br883   1.931       .  S
C878        C879   1.414       .  A
C879        C880   1.410       .  A
C879       Br888   1.931       .  S
C880       Br884   1.930       .  S
C889        C890   1.411       .  A
C889        C894   1.410       .  A
C890        C891   1.406       .  A
C890       Br902   1.926       .  S
C891        C892   1.409       .  A
C891       Br906   1.934       .  S
C892        C895   1.490       .  S
C892        C893   1.411       .  A
C893        C894   1.415       .  A
C893       Br901   1.926       .  S
C894       Br905   1.927       .  S
C895        C896   1.408       .  A
C895        C900   1.409       .  A
C896        C897   1.408       .  A
C896       Br907   1.928       .  S
C897        C898   1.412       .  A
C897       Br903   1.929       .  S
C898        C899   1.417       .  A
C899        C900   1.412       .  A
C899       Br908   1.931       .  S
C900       Br904   1.929       .  S
C909        C910   1.408       .  A
C909        C914   1.410       .  A
C910        C911   1.407       .  A
C910       Br922   1.930       .  S
C911        C912   1.411       .  A
C911       Br926   1.931       .  S
C912        C915   1.488       .  S
C912        C913   1.411       .  A
C913        C914   1.409       .  A
C913       Br921   1.929       .  S
C914       Br925   1.930       .  S
C915        C916   1.411       .  A
C915        C920   1.411       .  A
C916        C917   1.406       .  A
C916       Br927   1.932       .  S
C917        C918   1.409       .  A
C917       Br923   1.931       .  S
C918        C919   1.408       .  A
C919        C920   1.410       .  A
C919       Br928   1.928       .  S
C920       Br924   1.927       .  S
C929        C930   1.407       .  A
C929        C934   1.408       .  A
C930        C931   1.406       .  A
C930       Br942   1.929       .  S
C931        C932   1.410       .  A
C931       Br946   1.929       .  S
C932        C935   1.481       .  S
C932        C933   1.408       .  A
C933        C934   1.405       .  A
C933       Br941   1.928       .  S
C934       Br945   1.929       .  S
C935        C936   1.409       .  A
C935        C940   1.407       .  A
C936        C937   1.403       .  A
C936       Br947   1.934       .  S
C937        C938   1.411       .  A
C937       Br943   1.933       .  S
C938        C939   1.414       .  A
C939        C940   1.410       .  A
C939       Br948   1.929       .  S
C940       Br944   1.928       .  S
C949        C950   1.411       .  A
C949        C954   1.412       .  A
C950        C951   1.408       .  A
C950       Br962   1.931       .  S
C951        C952   1.410       .  A
C951       Br966   1.931       .  S
C952        C955   1.484       .  S
C952        C953   1.407       .  A
C953        C954   1.407       .  A
C953       Br961   1.929       .  S
C954       Br965   1.929       .  S
C955        C956   1.409       .  A
C955        C960   1.408       .  A
C956        C957   1.410       .  A
C956       Br967   1.927       .  S
C957        C958   1.411       .  A
C957       Br963   1.929       .  S
C958        C959   1.412       .  A
C959        C960   1.405       .  A
C959       Br968   1.930       .  S
C960       Br964   1.933       .  S
C969        C970   1.409       .  A
C969        C974   1.411       .  A
C970        C971   1.409       .  A
C970       Br982   1.930       .  S
C971        C972   1.412       .  A
C971       Br986   1.930       .  S
C972        C975   1.494       .  S
C972        C973   1.412       .  A
C973        C974   1.412       .  A
C973       Br981   1.930       .  S
C974       Br985   1.930       .  S
C975        C976   1.411       .  A
C975        C980   1.412       .  A
C976        C977   1.407       .  A
C976       Br987   1.931       .  S
C977        C978   1.411       .  A
C977       Br983   1.933       .  S
C978        C979   1.412       .  A
C979        C980   1.414       .  A
C979       Br988   1.928       .  S
C980       Br984   1.929       .  S
C989        C990   1.416       .  A
C989        C994   1.416       .  A
C990        C991   1.411       .  A
C990      Br1002   1.930       .  S
C991        C992   1.408       .  A
C991      Br1006   1.930       .  S
C992        C995   1.490       .  S
C992        C993   1.408       .  A
C993        C994   1.410       .  A
C993      Br1001   1.931       .  S
C994      Br1005   1.933       .  S
C995        C996   1.408       .  A
C995       C1000   1.410       .  A
C996        C997   1.407       .  A
C996      Br1007   1.933       .  S
C997        C998   1.417       .  A
C997      Br1003   1.935       .  S
C998        C999   1.412       .  A
C999       C1000   1.412       .  A
C999      Br1008   1.929       .  S
C1000     Br1004   1.927       .  S
C1009      C1010   1.412       .  A
C1009      C1014   1.408       .  A
C1010      C1011   1.400       .  A
C1010     Br1022   1.931       .  S
C1011      C1012   1.406       .  A
C1011     Br1026   1.935       .  S
C1012      C1015   1.479       .  S
C1012      C1013   1.411       .  A
C1013      C1014   1.411       .  A
C1013     Br1021   1.927       .  S
C1014     Br1025   1.927       .  S
C1015      C1016   1.408       .  A
C1015      C1020   1.407       .  A
C1016      C1017   1.407       .  A
C1016     Br1027   1.932       .  S
C1017      C1018   1.415       .  A
C1017     Br1023   1.933       .  S
C1018      C1019   1.412       .  A
C1019      C1020   1.404       .  A
C1019     Br1028   1.932       .  S
C1020     Br1024   1.931       .  S
C1029      C1030   1.410       .  A
C1029      C1034   1.410       .  A
C1030      C1031   1.411       .  A
C1030     Br1042   1.928       .  S
C1031      C1032   1.410       .  A
C1031     Br1046   1.927       .  S
C1032      C1035   1.491       .  S
C1032      C1033   1.411       .  A
C1033      C1034   1.409       .  A
C1033     Br1041   1.930       .  S
C1034     Br1045   1.930       .  S
C1035      C1036   1.408       .  A
C1035      C1040   1.408       .  A
C1036      C1037   1.409       .  A
C1036     Br1047   1.932       .  S
C1037      C1038   1.417       .  A
C1037     Br1043   1.932       .  S
C1038      C1039   1.417       .  A
C1039      C1040   1.412       .  A
C1039     Br1048   1.931       .  S
C1040     Br1044   1.928       .  S
C1049      C1050   1.415       .  A
C1049      C1054   1.415       .  A
C1050      C1051   1.408       .  A
C1050     Br1062   1.933       .  S
C1051      C1052   1.409       .  A
C1051     Br1066   1.930       .  S
C1052      C1055   1.499       .  S
C1052      C1053   1.412       .  A
C1053      C1054   1.417       .  A
C1053     Br1061   1.928       .  S
C1054     Br1065   1.929       .  S
C1055      C1056   1.412       .  A
C1055      C1060   1.411       .  A
C1056      C1057   1.416       .  A
C1056     Br1067   1.927       .  S
C1057      C1058   1.413       .  A
C1057     Br1063   1.929       .  S
C1058      C1059   1.415       .  A
C1059      C1060   1.411       .  A
C1059     Br1068   1.931       .  S
C1060     Br1064   1.933       .  S
C1069      C1070   1.405       .  A
C1069      C1074   1.408       .  A
C1070      C1071   1.404       .  A
C1070     Br1082   1.927       .  S
C1071      C1072   1.411       .  A
C1071     Br1086   1.927       .  S
C1072      C1075   1.482       .  S
C1072      C1073   1.408       .  A
C1073      C1074   1.407       .  A
C1073     Br1081   1.926       .  S
C1074     Br1085   1.927       .  S
C1075      C1076   1.408       .  A
C1075      C1080   1.407       .  A
C1076      C1077   1.404       .  A
C1076     Br1087   1.931       .  S
C1077      C1078   1.412       .  A
C1077     Br1083   1.933       .  S
C1078      C1079   1.413       .  A
C1079      C1080   1.409       .  A
C1079     Br1088   1.929       .  S
C1080     Br1084   1.927       .  S
C1089      C1090   1.428       .  A
C1089      C1094   1.427       .  A
C1090      C1091   1.415       .  A
C1090     Br1102   1.933       .  S
C1091      C1092   1.405       .  A
C1091     Br1106   1.933       .  S
C1092      C1095   1.495       .  S
C1092      C1093   1.405       .  A
C1093      C1094   1.413       .  A
C1093     Br1101   1.933       .  S
C1094     Br1105   1.935       .  S
C1095      C1096   1.413       .  A
C1095      C1100   1.409       .  A
C1096      C1097   1.415       .  A
C1096     Br1107   1.926       .  S
C1097      C1098   1.409       .  A
C1097     Br1103   1.928       .  S
C1098      C1099   1.411       .  A
C1099      C1100   1.406       .  A
C1099     Br1108   1.928       .  S
C1100     Br1104   1.931       .  S
C1109      C1110   1.413       .  A
C1109      C1114   1.409       .  A
C1110      C1111   1.408       .  A
C1110     Br1122   1.927       .  S
C1111      C1112   1.408       .  A
C1111     Br1126   1.931       .  S
C1112      C1115   1.494       .  S
C1112      C1113   1.412       .  A
C1113      C1114   1.414       .  A
C1113     Br1121   1.927       .  S
C1114     Br1125   1.926       .  S
C1115      C1116   1.411       .  A
C1115      C1120   1.408       .  A
C1116      C1117   1.415       .  A
C1116     Br1127   1.929       .  S
C1117      C1118   1.415       .  A
C1117     Br1123   1.929       .  S
C1118      C1119   1.416       .  A
C1119      C1120   1.408       .  A
C1119     Br1128   1.932       .  S
C1120     Br1124   1.932       .  S
C1129      C1130   1.408       .  A
C1129      C1134   1.408       .  A
C1130      C1131   1.406       .  A
C1130     Br1142   1.932       .  S
C1131      C1132   1.411       .  A
C1131     Br1146   1.925       .  S
C1132      C1135   1.487       .  S
C1132      C1133   1.409       .  A
C1133      C1134   1.409       .  A
C1133     Br1141   1.927       .  S
C1134     Br1145   1.926       .  S
C1135      C1136   1.408       .  A
C1135      C1140   1.408       .  A
C1136      C1137   1.411       .  A
C1136     Br1147   1.929       .  S
C1137      C1138   1.415       .  A
C1137     Br1143   1.930       .  S
C1138      C1139   1.417       .  A
C1139      C1140   1.408       .  A
C1139     Br1148   1.933       .  S
C1140     Br1144   1.932       .  S
C1149      C1150   1.410       .  A
C1149      C1154   1.410       .  A
C1150      C1151   1.407       .  A
C1150     Br1162   1.928       .  S
C1151      C1152   1.410       .  A
C1151     Br1166   1.931       .  S
C1152      C1155   1.490       .  S
C1152      C1153   1.411       .  A
C1153      C1154   1.411       .  A
C1153     Br1161   1.928       .  S
C1154     Br1165   1.927       .  S
C1155      C1156   1.410       .  A
C1155      C1160   1.411       .  A
C1156      C1157   1.406       .  A
C1156     Br1167   1.935       .  S
C1157      C1158   1.415       .  A
C1157     Br1163   1.936       .  S
C1158      C1159   1.410       .  A
C1159      C1160   1.412       .  A
C1159     Br1168   1.928       .  S
C1160     Br1164   1.926       .  S
C1169      C1170   1.419       .  A
C1169      C1174   1.414       .  A
C1170      C1171   1.410       .  A
C1170     Br1182   1.935       .  S
C1171      C1172   1.408       .  A
C1171     Br1186   1.932       .  S
C1172      C1175   1.493       .  S
C1172      C1173   1.410       .  A
C1173      C1174   1.412       .  A
C1173     Br1181   1.929       .  S
C1174     Br1185   1.928       .  S
C1175      C1176   1.409       .  A
C1175      C1180   1.410       .  A
C1176      C1177   1.411       .  A
C1176     Br1187   1.928       .  S
C1177      C1178   1.414       .  A
C1177     Br1183   1.930       .  S
C1178      C1179   1.418       .  A
C1179      C1180   1.410       .  A
C1179     Br1188   1.934       .  S
C1180     Br1184   1.933       .  S
C1189      C1190   1.415       .  A
C1189      C1194   1.415       .  A
C1190      C1191   1.412       .  A
C1190     Br1202   1.930       .  S
C1191      C1192   1.409       .  A
C1191     Br1206   1.929       .  S
C1192      C1195   1.493       .  S
C1192      C1193   1.410       .  A
C1193      C1194   1.411       .  A
C1193     Br1201   1.932       .  S
C1194     Br1205   1.931       .  S
C1195      C1196   1.410       .  A
C1195      C1200   1.411       .  A
C1196      C1197   1.407       .  A
C1196     Br1207   1.932       .  S
C1197      C1198   1.414       .  A
C1197     Br1203   1.933       .  S
C1198      C1199   1.412       .  A
C1199      C1200   1.412       .  A
C1199     Br1208   1.929       .  S
C1200     Br1204   1.927       .  S
C1209      C1210   1.407       .  A
C1209      C1214   1.409       .  A
C1210      C1211   1.406       .  A
C1210     Br1222   1.928       .  S
C1211      C1212   1.408       .  A
C1211     Br1226   1.927       .  S
C1212      C1215   1.477       .  S
C1212      C1213   1.409       .  A
C1213      C1214   1.403       .  A
C1213     Br1221   1.932       .  S
C1214     Br1225   1.931       .  S
C1215      C1216   1.407       .  A
C1215      C1220   1.409       .  A
C1216      C1217   1.405       .  A
C1216     Br1227   1.929       .  S
C1217      C1218   1.411       .  A
C1217     Br1223   1.931       .  S
C1218      C1219   1.408       .  A
C1219      C1220   1.404       .  A
C1219     Br1228   1.931       .  S
C1220     Br1224   1.930       .  S
C1229      C1230   1.421       .  A
C1229      C1234   1.415       .  A
C1230      C1231   1.410       .  A
C1230     Br1242   1.934       .  S
C1231      C1232   1.407       .  A
C1231     Br1246   1.932       .  S
C1232      C1235   1.491       .  S
C1232      C1233   1.409       .  A
C1233      C1234   1.411       .  A
C1233     Br1241   1.930       .  S
C1234     Br1245   1.929       .  S
C1235      C1236   1.412       .  A
C1235      C1240   1.411       .  A
C1236      C1237   1.410       .  A
C1236     Br1247   1.927       .  S
C1237      C1238   1.408       .  A
C1237     Br1243   1.929       .  S
C1238      C1239   1.409       .  A
C1239      C1240   1.407       .  A
C1239     Br1248   1.930       .  S
C1240     Br1244   1.929       .  S
C1249      C1250   1.412       .  A
C1249      C1254   1.417       .  A
C1250      C1251   1.413       .  A
C1250     Br1262   1.928       .  S
C1251      C1252   1.411       .  A
C1251     Br1266   1.928       .  S
C1252      C1255   1.495       .  S
C1252      C1253   1.410       .  A
C1253      C1254   1.410       .  A
C1253     Br1261   1.934       .  S
C1254     Br1265   1.932       .  S
C1255      C1256   1.411       .  A
C1255      C1260   1.411       .  A
C1256      C1257   1.409       .  A
C1256     Br1267   1.932       .  S
C1257      C1258   1.414       .  A
C1257     Br1263   1.933       .  S
C1258      C1259   1.411       .  A
C1259      C1260   1.412       .  A
C1259     Br1268   1.929       .  S
C1260     Br1264   1.928       .  S
C1269      C1270   1.410       .  A
C1269      C1274   1.412       .  A
C1270      C1271   1.412       .  A
C1270     Br1282   1.928       .  S
C1271      C1272   1.411       .  A
C1271     Br1286   1.927       .  S
C1272      C1275   1.489       .  S
C1272      C1273   1.409       .  A
C1273      C1274   1.406       .  A
C1273     Br1281   1.933       .  S
C1274     Br1285   1.929       .  S
C1275      C1276   1.407       .  A
C1275      C1280   1.405       .  A
C1276      C1277   1.412       .  A
C1276     Br1287   1.932       .  S
C1277      C1278   1.425       .  A
C1277     Br1283   1.935       .  S
C1278      C1279   1.420       .  A
C1279      C1280   1.408       .  A
C1279     Br1288   1.933       .  S
C1280     Br1284   1.931       .  S
C1289      C1290   1.416       .  A
C1289      C1294   1.416       .  A
C1290      C1291   1.413       .  A
C1290     Br1302   1.930       .  S
C1291      C1292   1.410       .  A
C1291     Br1306   1.929       .  S
C1292      C1295   1.500       .  S
C1292      C1293   1.411       .  A
C1293      C1294   1.415       .  A
C1293     Br1301   1.930       .  S
C1294     Br1305   1.931       .  S
C1295      C1296   1.412       .  A
C1295      C1300   1.412       .  A
C1296      C1297   1.411       .  A
C1296     Br1307   1.931       .  S
C1297      C1298   1.414       .  A
C1297     Br1303   1.933       .  S
C1298      C1299   1.409       .  A
C1299      C1300   1.414       .  A
C1299     Br1308   1.927       .  S
C1300     Br1304   1.925       .  S
C1309      C1310   1.421       .  A
C1309      C1314   1.424       .  A
C1310      C1311   1.407       .  A
C1310     Br1322   1.936       .  S
C1311      C1312   1.405       .  A
C1311     Br1326   1.931       .  S
C1312      C1315   1.473       .  S
C1312      C1313   1.403       .  A
C1313      C1314   1.401       .  A
C1313     Br1321   1.938       .  S
C1314     Br1325   1.939       .  S
C1315      C1316   1.409       .  A
C1315      C1320   1.407       .  A
C1316      C1317   1.409       .  A
C1316     Br1327   1.927       .  S
C1317      C1318   1.408       .  A
C1317     Br1323   1.927       .  S
C1318      C1319   1.410       .  A
C1319      C1320   1.397       .  A
C1319     Br1328   1.929       .  S
C1320     Br1324   1.937       .  S
C1329      C1330   1.408       .  A
C1329      C1334   1.407       .  A
C1330      C1331   1.405       .  A
C1330     Br1342   1.927       .  S
C1331      C1332   1.411       .  A
C1331     Br1346   1.932       .  S
C1332      C1335   1.485       .  S
C1332      C1333   1.411       .  A
C1333      C1334   1.406       .  A
C1333     Br1341   1.929       .  S
C1334     Br1345   1.927       .  S
C1335      C1336   1.410       .  A
C1335      C1340   1.406       .  A
C1336      C1337   1.413       .  A
C1336     Br1347   1.931       .  S
C1337      C1338   1.418       .  A
C1337     Br1343   1.929       .  S
C1338      C1339   1.422       .  A
C1339      C1340   1.403       .  A
C1339     Br1348   1.936       .  S
C1340     Br1344   1.935       .  S
C1349      C1350   1.412       .  A
C1349      C1354   1.416       .  A
C1350      C1351   1.412       .  A
C1350     Br1362   1.928       .  S
C1351      C1352   1.409       .  A
C1351     Br1366   1.929       .  S
C1352      C1355   1.487       .  S
C1352      C1353   1.408       .  A
C1353      C1354   1.406       .  A
C1353     Br1361   1.932       .  S
C1354     Br1365   1.934       .  S
C1355      C1356   1.408       .  A
C1355      C1360   1.409       .  A
C1356      C1357   1.407       .  A
C1356     Br1367   1.931       .  S
C1357      C1358   1.417       .  A
C1357     Br1363   1.936       .  S
C1358      C1359   1.414       .  A
C1359      C1360   1.409       .  A
C1359     Br1368   1.932       .  S
C1360     Br1364   1.930       .  S
C1369      C1370   1.410       .  A
C1369      C1374   1.412       .  A
C1370      C1371   1.402       .  A
C1370     Br1382   1.934       .  S
C1371      C1372   1.409       .  A
C1371     Br1386   1.931       .  S
C1372      C1375   1.485       .  S
C1372      C1373   1.410       .  A
C1373      C1374   1.412       .  A
C1373     Br1381   1.927       .  S
C1374     Br1385   1.929       .  S
C1375      C1376   1.410       .  A
C1375      C1380   1.408       .  A
C1376      C1377   1.407       .  A
C1376     Br1387   1.930       .  S
C1377      C1378   1.409       .  A
C1377     Br1383   1.930       .  S
C1378      C1379   1.412       .  A
C1379      C1380   1.408       .  A
C1379     Br1388   1.930       .  S
C1380     Br1384   1.929       .  S
C1389      C1390   1.414       .  A
C1389      C1394   1.413       .  A
C1390      C1391   1.407       .  A
C1390     Br1402   1.931       .  S
C1391      C1392   1.409       .  A
C1391     Br1406   1.932       .  S
C1392      C1395   1.491       .  S
C1392      C1393   1.410       .  A
C1393      C1394   1.412       .  A
C1393     Br1401   1.928       .  S
C1394     Br1405   1.929       .  S
C1395      C1396   1.408       .  A
C1395      C1400   1.411       .  A
C1396      C1397   1.410       .  A
C1396     Br1407   1.932       .  S
C1397      C1398   1.415       .  A
C1397     Br1403   1.924       .  S
C1398      C1399   1.411       .  A
C1399      C1400   1.410       .  A
C1399     Br1408   1.930       .  S
C1400     Br1404   1.929       .  S
C1409      C1410   1.411       .  A
C1409      C1414   1.413   1_655  A
C1410      C1411   1.410   1_655  A
C1410     Br1422   1.929       .  S
C1411      C1412   1.409       .  A
C1411     Br1426   1.928       .  S
C1412      C1415   1.481       .  S
C1412      C1413   1.407       .  A
C1413      C1414   1.403       .  A
C1413     Br1421   1.933       .  S
C1414     Br1425   1.933       .  S
C1415      C1416   1.407       .  A
C1415      C1420   1.407       .  A
C1416      C1417   1.406       .  A
C1416     Br1427   1.933       .  S
C1417      C1418   1.418       .  A
C1417     Br1423   1.936       .  S
C1418      C1419   1.413       .  A
C1419      C1420   1.408       .  A
C1419     Br1428   1.929       .  S
C1420     Br1424   1.929       .  S
C1429      C1430   1.409       .  A
C1429      C1434   1.412       .  A
C1430      C1431   1.403       .  A
C1430     Br1442   1.931       .  S
C1431      C1432   1.409       .  A
C1431     Br1446   1.931       .  S
C1432      C1435   1.482       .  S
C1432      C1433   1.409       .  A
C1433      C1434   1.409       .  A
C1433     Br1441   1.928       .  S
C1434     Br1445   1.931       .  S
C1435      C1436   1.409       .  A
C1435      C1440   1.409       .  A
C1436      C1437   1.404       .  A
C1436     Br1447   1.934       .  S
C1437      C1438   1.411       .  A
C1437     Br1443   1.932       .  S
C1438      C1439   1.410       .  A
C1439      C1440   1.410       .  A
C1439     Br1448   1.928       .  S
C1440     Br1444   1.927       .  S
C1449      C1450   1.405       .  A
C1449      C1454   1.408       .  A
C1450      C1451   1.401       .  A
C1450     Br1462   1.930       .  S
C1451      C1452   1.412       .  A
C1451     Br1466   1.934       .  S
C1452      C1455   1.481       .  S
C1452      C1453   1.411       .  A
C1453      C1454   1.408       .  A
C1453     Br1461   1.928       .  S
C1454     Br1465   1.929       .  S
C1455      C1456   1.407       .  A
C1455      C1460   1.407       .  A
C1456      C1457   1.404       .  A
C1456     Br1467   1.933       .  S
C1457      C1458   1.416       .  A
C1457     Br1463   1.933       .  S
C1458      C1459   1.417       .  A
C1459      C1460   1.408       .  A
C1459     Br1468   1.931       .  S
C1460     Br1464   1.932       .  S
C1469      C1470   1.411       .  A
C1469      C1474   1.411       .  A
C1470      C1471   1.408       .  A
C1470     Br1482   1.930       .  S
C1471      C1472   1.409       .  A
C1471     Br1486   1.930       .  S
C1472      C1475   1.484       .  S
C1472      C1473   1.409       .  A
C1473      C1474   1.407       .  A
C1473     Br1481   1.932       .  S
C1474     Br1485   1.931       .  S
C1475      C1476   1.410       .  A
C1475      C1480   1.407       .  A
C1476      C1477   1.411       .  A
C1476     Br1487   1.928       .  S
C1477      C1478   1.413       .  A
C1477     Br1483   1.930       .  S
C1478      C1479   1.413       .  A
C1479      C1480   1.403       .  A
C1479     Br1488   1.930       .  S
C1480     Br1484   1.933       .  S
C1489      C1490   1.420       .  A
C1489      C1494   1.423       .  A
C1490      C1491   1.408       .  A
C1490     Br1502   1.933       .  S
C1491      C1492   1.405       .  A
C1491     Br1506   1.931       .  S
C1492      C1495   1.486       .  S
C1492      C1493   1.406       .  A
C1493      C1494   1.411       .  A
C1493     Br1501   1.933       .  S
C1494     Br1505   1.932       .  S
C1495      C1496   1.408       .  A
C1495      C1500   1.407       .  A
C1496      C1497   1.410   1_455  A
C1496     Br1507   1.928   1_455  S
C1497      C1498   1.415       .  A
C1497     Br1503   1.931       .  S
C1498      C1499   1.413   1_655  A
C1499      C1500   1.406       .  A
C1499     Br1508   1.925       .  S
C1500     Br1504   1.932       .  S
C1509      C1510   1.414   1_545  A
C1509      C1514   1.415       .  A
C1510      C1511   1.405       .  A
C1510     Br1522   1.927       .  S
C1511      C1512   1.408       .  A
C1511     Br1526   1.933       .  S
C1512      C1515   1.490       .  S
C1512      C1513   1.410       .  A
C1513      C1514   1.414   1_565  A
C1513     Br1521   1.929       .  S
C1514     Br1525   1.928       .  S
C1515      C1516   1.411       .  A
C1515      C1520   1.409       .  A
C1516      C1517   1.412       .  A
C1516     Br1527   1.927       .  S
C1517      C1518   1.410       .  A
C1517     Br1523   1.928       .  S
C1518      C1519   1.415       .  A
C1519      C1520   1.406       .  A
C1519     Br1528   1.933       .  S
C1520     Br1524   1.932       .  S
C1529      C1530   1.413       .  A
C1529      C1534   1.416       .  A
C1530      C1531   1.414       .  A
C1530     Br1542   1.926       .  S
C1531      C1532   1.410       .  A
C1531     Br1546   1.926       .  S
C1532      C1535   1.485       .  S
C1532      C1533   1.406       .  A
C1533      C1534   1.401       .  A
C1533     Br1541   1.934       .  S
C1534     Br1545   1.936       .  S
C1535      C1536   1.409       .  A
C1535      C1540   1.410       .  A
C1536      C1537   1.406       .  A
C1536     Br1547   1.931       .  S
C1537      C1538   1.408       .  A
C1537     Br1543   1.929       .  S
C1538      C1539   1.410       .  A
C1539      C1540   1.409       .  A
C1539     Br1548   1.929       .  S
C1540     Br1544   1.929       .  S
C1549      C1550   1.418       .  A
C1549      C1554   1.414       .  A
C1550      C1551   1.408       .  A
C1550     Br1562   1.933       .  S
C1551      C1552   1.408       .  A
C1551     Br1566   1.934       .  S
C1552      C1555   1.493       .  S
C1552      C1553   1.412       .  A
C1553      C1554   1.414       .  A
C1553     Br1561   1.929       .  S
C1554     Br1565   1.929   1_545  S
C1555      C1556   1.412       .  A
C1555      C1560   1.407       .  A
C1556      C1557   1.413       .  A
C1556     Br1567   1.929       .  S
C1557      C1558   1.412       .  A
C1557     Br1563   1.929       .  S
C1558      C1559   1.418       .  A
C1559      C1560   1.408       .  A
C1559     Br1568   1.934       .  S
C1560     Br1564   1.933       .  S
C1569      C1570   1.420       .  A
C1569      C1574   1.418       .  A
C1570      C1571   1.414       .  A
C1570     Br1582   1.932       .  S
C1571      C1572   1.408       .  A
C1571     Br1586   1.929       .  S
C1572      C1575   1.495       .  S
C1572      C1573   1.409       .  A
C1573      C1574   1.411       .  A
C1573     Br1581   1.932       .  S
C1574     Br1585   1.931       .  S
C1575      C1576   1.411       .  A
C1575      C1580   1.410       .  A
C1576      C1577   1.411       .  A
C1576     Br1587   1.929       .  S
C1577      C1578   1.412       .  A
C1577     Br1583   1.930       .  S
C1578      C1579   1.409       .  A
C1579      C1580   1.411       .  A
C1579     Br1588   1.927       .  S
C1580     Br1584   1.927       .  S
C1589      C1590   1.411       .  A
C1589      C1594   1.409       .  A
C1590      C1591   1.405       .  A
C1590     Br1602   1.930       .  S
C1591      C1592   1.409       .  A
C1591     Br1606   1.934       .  S
C1592      C1595   1.487       .  S
C1592      C1593   1.410       .  A
C1593      C1594   1.413       .  A
C1593     Br1601   1.926       .  S
C1594     Br1605   1.926   1_455  S
C1595      C1596   1.409       .  A
C1595      C1600   1.405       .  A
C1596      C1597   1.411       .  A
C1596     Br1607   1.929       .  S
C1597      C1598   1.415       .  A
C1597     Br1603   1.931       .  S
C1598      C1599   1.417       .  A
C1599      C1600   1.406       .  A
C1599     Br1608   1.932       .  S
C1600     Br1604   1.931       .  S
C1609      C1610   1.426       .  A
C1609      C1614   1.425       .  A
C1610      C1611   1.415       .  A
C1610     Br1622   1.933       .  S
C1611      C1612   1.408       .  A
C1611     Br1626   1.931       .  S
C1612      C1615   1.495       .  S
C1612      C1613   1.406       .  A
C1613      C1614   1.408       .  A
C1613     Br1621   1.934       .  S
C1614     Br1625   1.936       .  S
C1615      C1616   1.411       .  A
C1615      C1620   1.413       .  A
C1616      C1617   1.409       .  A
C1616     Br1627   1.932       .  S
C1617      C1618   1.412       .  A
C1617     Br1623   1.931       .  S
C1618      C1619   1.411       .  A
C1619      C1620   1.413       .  A
C1619     Br1628   1.929       .  S
C1620     Br1624   1.929       .  S
C1629      C1630   1.412       .  A
C1629      C1634   1.410       .  A
C1630      C1631   1.404       .  A
C1630     Br1642   1.933       .  S
C1631      C1632   1.409       .  A
C1631     Br1646   1.934       .  S
C1632      C1635   1.488       .  S
C1632      C1633   1.411       .  A
C1633      C1634   1.414       .  A
C1633     Br1641   1.926       .  S
C1634     Br1645   1.927       .  S
C1635      C1636   1.408       .  A
C1635      C1640   1.407       .  A
C1636      C1637   1.409       .  A
C1636     Br1647   1.930       .  S
C1637      C1638   1.415       .  A
C1637     Br1643   1.931       .  S
C1638      C1639   1.417       .  A
C1639      C1640   1.410       .  A
C1639     Br1648   1.931       .  S
C1640     Br1644   1.929       .  S
C1649      C1650   1.423       .  A
C1649      C1654   1.422       .  A
C1650      C1651   1.405       .  A
C1650     Br1662   1.932       .  S
C1651      C1652   1.404       .  A
C1651     Br1666   1.935       .  S
C1652      C1655   1.485       .  S
C1652      C1653   1.407       .  A
C1653      C1654   1.412       .  A
C1653     Br1661   1.931       .  S
C1654     Br1665   1.933       .  S
C1655      C1656   1.406       .  A
C1655      C1660   1.410       .  A
C1656      C1657   1.403       .  A
C1656     Br1667   1.935       .  S
C1657      C1658   1.418       .  A
C1657     Br1663   1.936       .  S
C1658      C1659   1.412       .  A
C1659      C1660   1.412       .  A
C1659     Br1668   1.928       .  S
C1660     Br1664   1.928       .  S
C1669      C1670   1.414       .  A
C1669      C1674   1.420       .  A
C1670      C1671   1.416       .  A
C1670     Br1682   1.927       .  S
C1671      C1672   1.411       .  A
C1671     Br1686   1.927       .  S
C1672      C1675   1.494       .  S
C1672      C1673   1.407       .  A
C1673      C1674   1.407       .  A
C1673     Br1681   1.934       .  S
C1674     Br1685   1.934       .  S
C1675      C1676   1.406       .  A
C1675      C1680   1.409       .  A
C1676      C1677   1.410       .  A
C1676     Br1687   1.934       .  S
C1677      C1678   1.425       .  A
C1677     Br1683   1.938       .  S
C1678      C1679   1.418       .  A
C1679      C1680   1.414       .  A
C1679     Br1688   1.930       .  S
C1680     Br1684   1.929       .  S
C1689      C1690   1.410       .  A
C1689      C1694   1.414       .  A
C1690      C1691   1.411       .  A
C1690     Br1702   1.927       .  S
C1691      C1692   1.410       .  A
C1691     Br1706   1.927       .  S
C1692      C1695   1.489       .  S
C1692      C1693   1.409       .  A
C1693      C1694   1.407       .  A
C1693     Br1701   1.932       .  S
C1694     Br1705   1.935       .  S
C1695      C1696   1.406       .  A
C1695      C1700   1.410       .  A
C1696      C1697   1.407       .  A
C1696     Br1707   1.929       .  S
C1697      C1698   1.416       .  A
C1697     Br1703   1.930   1_565  S
C1698      C1699   1.418       .  A
C1699      C1700   1.413       .  A
C1699     Br1708   1.930   1_565  S
C1700     Br1704   1.931       .  S
C1709      C1710   1.414       .  A
C1709      C1714   1.415       .  A
C1710      C1711   1.410       .  A
C1710     Br1722   1.932       .  S
C1711      C1712   1.409       .  A
C1711     Br1726   1.927       .  S
C1712      C1715   1.491       .  S
C1712      C1713   1.410       .  A
C1713      C1714   1.410       .  A
C1713     Br1721   1.932       .  S
C1714     Br1725   1.932       .  S
C1715      C1716   1.411       .  A
C1715      C1720   1.409       .  A
C1716      C1717   1.410       .  A
C1716     Br1727   1.931       .  S
C1717      C1718   1.412       .  A
C1717     Br1723   1.931       .  S
C1718      C1719   1.415       .  A
C1719      C1720   1.411       .  A
C1719     Br1728   1.931   1_655  S
C1720     Br1724   1.929       .  S
C1729      C1730   1.404       .  A
C1729      C1734   1.408       .  A
C1730      C1731   1.402       .  A
C1730     Br1742   1.924       .  S
C1731      C1732   1.409       .  A
C1731     Br1746   1.929       .  S
C1732      C1735   1.486       .  S
C1732      C1733   1.412       .  A
C1733      C1734   1.412       .  A
C1733     Br1741   1.926       .  S
C1734     Br1745   1.926       .  S
C1735      C1736   1.406       .  A
C1735      C1740   1.404       .  A
C1736      C1737   1.409       .  A
C1736     Br1747   1.935       .  S
C1737      C1738   1.423       .  A
C1737     Br1743   1.936       .  S
C1738      C1739   1.425       .  A
C1739      C1740   1.412       .  A
C1739     Br1748   1.934       .  S
C1740     Br1744   1.932       .  S
C1749      C1750   1.417       .  A
C1749      C1754   1.416       .  A
C1750      C1751   1.410       .  A
C1750     Br1762   1.931       .  S
C1751      C1752   1.408       .  A
C1751     Br1766   1.932       .  S
C1752      C1755   1.486       .  S
C1752      C1753   1.407       .  A
C1753      C1754   1.409       .  A
C1753     Br1761   1.930       .  S
C1754     Br1765   1.931       .  S
C1755      C1756   1.410       .  A
C1755      C1760   1.407       .  A
C1756      C1757   1.411       .  A
C1756     Br1767   1.927       .  S
C1757      C1758   1.411       .  A
C1757     Br1763   1.930       .  S
C1758      C1759   1.415       .  A
C1759      C1760   1.405       .  A
C1759     Br1768   1.934       .  S
C1760     Br1764   1.932       .  S
C1769      C1770   1.408       .  A
C1769      C1774   1.411       .  A
C1770      C1771   1.406       .  A
C1770     Br1782   1.931       .  S
C1771      C1772   1.411       .  A
C1771     Br1786   1.930       .  S
C1772      C1775   1.486       .  S
C1772      C1773   1.411       .  A
C1773      C1774   1.408       .  A
C1773     Br1781   1.930       .  S
C1774     Br1785   1.931       .  S
C1775      C1776   1.410       .  A
C1775      C1780   1.412       .  A
C1776      C1777   1.402       .  A
C1776     Br1787   1.934       .  S
C1777      C1778   1.409       .  A
C1777     Br1783   1.931       .  S
C1778      C1779   1.410       .  A
C1779      C1780   1.412       .  A
C1779     Br1788   1.928       .  S
C1780     Br1784   1.928       .  S
C1789      C1790   1.413       .  A
C1789      C1794   1.419       .  A
C1790      C1791   1.414       .  A
C1790     Br1802   1.927       .  S
C1791      C1792   1.410       .  A
C1791     Br1806   1.928       .  S
C1792      C1795   1.495       .  S
C1792      C1793   1.409       .  A
C1793      C1794   1.411       .  A
C1793     Br1801   1.933       .  S
C1794     Br1805   1.934       .  S
C1795      C1796   1.410       .  A
C1795      C1800   1.410       .  A
C1796      C1797   1.411       .  A
C1796     Br1807   1.932       .  S
C1797      C1798   1.418   1_655  A
C1797     Br1803   1.933       .  S
C1798      C1799   1.415   1_455  A
C1799      C1800   1.412       .  A
C1799     Br1808   1.931   1_655  S
C1800     Br1804   1.928       .  S
C1809      C1810   1.414       .  A
C1809      C1814   1.417       .  A
C1810      C1811   1.413       .  A
C1810     Br1822   1.930       .  S
C1811      C1812   1.410       .  A
C1811     Br1826   1.928       .  S
C1812      C1815   1.492       .  S
C1812      C1813   1.408       .  A
C1813      C1814   1.409       .  A
C1813     Br1821   1.932       .  S
C1814     Br1825   1.932       .  S
C1815      C1816   1.411       .  A
C1815      C1820   1.411       .  A
C1816      C1817   1.409       .  A
C1816     Br1827   1.929       .  S
C1817      C1818   1.409       .  A
C1817     Br1823   1.930       .  S
C1818      C1819   1.410   1_545  A
C1819      C1820   1.412   1_565  A
C1819     Br1828   1.929       .  S
C1820     Br1824   1.928       .  S
C1829      C1830   1.415       .  A
C1829      C1834   1.411       .  A
C1830      C1831   1.404       .  A
C1830     Br1842   1.932       .  S
C1831      C1832   1.407       .  A
C1831     Br1846   1.933       .  S
C1832      C1835   1.488       .  S
C1832      C1833   1.411       .  A
C1833      C1834   1.414       .  A
C1833     Br1841   1.925       .  S
C1834     Br1845   1.927       .  S
C1835      C1836   1.408       .  A
C1835      C1840   1.409       .  A
C1836      C1837   1.407       .  A
C1836     Br1847   1.932       .  S
C1837      C1838   1.412       .  A
C1837     Br1843   1.927       .  S
C1838      C1839   1.413       .  A
C1839      C1840   1.413       .  A
C1839     Br1848   1.928       .  S
C1840     Br1844   1.928       .  S
C1849      C1850   1.412       .  A
C1849      C1854   1.411       .  A
C1850      C1851   1.404       .  A
C1850     Br1862   1.931       .  S
C1851      C1852   1.409       .  A
C1851     Br1866   1.933       .  S
C1852      C1855   1.491       .  S
C1852      C1853   1.412       .  A
C1853      C1854   1.415       .  A
C1853     Br1861   1.927       .  S
C1854     Br1865   1.928       .  S
C1855      C1856   1.402       .  A
C1855      C1860   1.406       .  A
C1856      C1857   1.411       .  A
C1856     Br1867   1.937       .  S
C1857      C1858   1.436       .  A
C1857     Br1863   1.939       .  S
C1858      C1859   1.424       .  A
C1859      C1860   1.414       .  A
C1859     Br1868   1.932       .  S
C1860     Br1864   1.930       .  S
C1869      C1870   1.417       .  A
C1869      C1874   1.412       .  A
C1870      C1871   1.409       .  A
C1870     Br1882   1.933       .  S
C1871      C1872   1.408       .  A
C1871     Br1886   1.933       .  S
C1872      C1875   1.492       .  S
C1872      C1873   1.410       .  A
C1873      C1874   1.413       .  A
C1873     Br1881   1.927       .  S
C1874     Br1885   1.927       .  S
C1875      C1876   1.411       .  A
C1875      C1880   1.408       .  A
C1876      C1877   1.412       .  A
C1876     Br1887   1.927       .  S
C1877      C1878   1.409       .  A
C1877     Br1883   1.928       .  S
C1878      C1879   1.415       .  A
C1879      C1880   1.408       .  A
C1879     Br1888   1.931       .  S
C1880     Br1884   1.931       .  S
C1889      C1890   1.409       .  A
C1889      C1894   1.411       .  A
C1890      C1891   1.406       .  A
C1890     Br1902   1.930       .  S
C1891      C1892   1.410       .  A
C1891     Br1906   1.931       .  S
C1892      C1895   1.492       .  S
C1892      C1893   1.412       .  A
C1893      C1894   1.414       .  A
C1893     Br1901   1.927       .  S
C1894     Br1905   1.929       .  S
C1895      C1896   1.410       .  A
C1895      C1900   1.409       .  A
C1896      C1897   1.409       .  A
C1896     Br1907   1.931       .  S
C1897      C1898   1.413       .  A
C1897     Br1903   1.931       .  S
C1898      C1899   1.414       .  A
C1899      C1900   1.412       .  A
C1899     Br1908   1.929       .  S
C1900     Br1904   1.928       .  S
C1909      C1910   1.410       .  A
C1909      C1914   1.408   1_545  A
C1910      C1911   1.411   1_545  A
C1910     Br1922   1.928       .  S
C1911      C1912   1.410       .  A
C1911     Br1926   1.928   1_565  S
C1912      C1915   1.491       .  S
C1912      C1913   1.412       .  A
C1913      C1914   1.408       .  A
C1913     Br1921   1.929       .  S
C1914     Br1925   1.931       .  S
C1915      C1916   1.408       .  A
C1915      C1920   1.409       .  A
C1916      C1917   1.408       .  A
C1916     Br1927   1.932       .  S
C1917      C1918   1.417       .  A
C1917     Br1923   1.933       .  S
C1918      C1919   1.414       .  A
C1919      C1920   1.413       .  A
C1919     Br1928   1.929       .  S
C1920     Br1924   1.928       .  S
C1929      C1930   1.411       .  A
C1929      C1934   1.410       .  A
C1930      C1931   1.403       .  A
C1930     Br1942   1.933       .  S
C1931      C1932   1.409       .  A
C1931     Br1946   1.933       .  S
C1932      C1935   1.482       .  S
C1932      C1933   1.409       .  A
C1933      C1934   1.410       .  A
C1933     Br1941   1.927       .  S
C1934     Br1945   1.928       .  S
C1935      C1936   1.407       .  A
C1935      C1940   1.410       .  A
C1936      C1937   1.405       .  A
C1936     Br1947   1.930       .  S
C1937      C1938   1.410       .  A
C1937     Br1943   1.929       .  S
C1938      C1939   1.410       .  A
C1939      C1940   1.408       .  A
C1939     Br1948   1.930       .  S
C1940     Br1944   1.929       .  S
C1949      C1950   1.410       .  A
C1949      C1954   1.411       .  A
C1950      C1951   1.409       .  A
C1950     Br1962   1.930       .  S
C1951      C1952   1.409       .  A
C1951     Br1966   1.928       .  S
C1952      C1955   1.480       .  S
C1952      C1953   1.408       .  A
C1953      C1954   1.402       .  A
C1953     Br1961   1.933       .  S
C1954     Br1965   1.934       .  S
C1955      C1956   1.405       .  A
C1955      C1960   1.408       .  A
C1956      C1957   1.404       .  A
C1956     Br1967   1.935       .  S
C1957      C1958   1.419       .  A
C1957     Br1963   1.936       .  S
C1958      C1959   1.412       .  A
C1959      C1960   1.410       .  A
C1959     Br1968   1.929       .  S
C1960     Br1964   1.928       .  S
