geometry optimzed in LAMMPS
_audit_creation_date              2020-12-01 
_audit_creation_method            'lammps2cif' 
_symmetry_space_group_name_H-M    'P1' 
_symmetry_Int_Tables_number       1 
_symmetry_cell_setting            triclinic 
loop_ 
_symmetry_equiv_pos_as_xyz 
  x,y,z 
_cell_length_a                    49.92207676 
_cell_length_b                    48.975773828295274 
_cell_length_c                    30.272980936513033 
_cell_angle_alpha                 90.67061516272743 
_cell_angle_beta                  89.72492942246222 
_cell_angle_gamma                 121.01184786136207 
loop_ 
_atom_site_label 
_atom_site_type_symbol 
_atom_site_fract_x 
_atom_site_fract_y 
_atom_site_fract_z 
_atom_site_charge 
N1          N  0.63627110  0.64342751  0.20713935    -0.27200
N2          N  0.64040378  0.66868034  0.18556808    -0.35100
C3          C  0.66763987  0.69441491  0.19833572     0.01100
C4          C  0.68158987  0.68490855  0.22888711     0.07100
C5          C  0.66119686  0.65246080  0.23362963    -0.06000
H6          H  0.67716444  0.71806710  0.18506745     0.07800
H7          H  0.66423925  0.63662610  0.25482673     0.09000
Cu8        Cu  0.61082300  0.66635273  0.13568457     0.44200
Cu9        Cu  0.59624501  0.59790048  0.19995981     0.42000
Cu10       Cu  0.53612943  0.59371513  0.12863712     0.43900
N11         N  0.58178271  0.65345293  0.08083575    -0.34600
N12         N  0.55402066  0.62709111  0.07879142    -0.28900
C13         C  0.54412726  0.62157067  0.03662661    -0.05000
C14         C  0.56695451  0.64527378  0.01064907     0.07200
C15         C  0.59032088  0.66531975  0.03990624     0.01000
H16         H  0.52381861  0.59974033  0.02511059     0.08700
H17         H  0.61335179  0.68481105  0.03147641     0.07800
N18         N  0.52948542  0.55629761  0.16776645    -0.36100
N19         N  0.55203720  0.55674638  0.19115839    -0.28300
C20         C  0.54186202  0.52698185  0.20549523    -0.03500
C21         C  0.51130582  0.50719164  0.19128961     0.05100
C22         C  0.50434979  0.52658028  0.16731517     0.03200
H23         H  0.55604916  0.51998328  0.22337761     0.08300
H24         H  0.48356239  0.51905938  0.14773566     0.07100
N25         N  0.36610353  0.33690619  0.19808374    -0.27200
N26         N  0.36219693  0.31199176  0.17498502    -0.35100
C27         C  0.33430588  0.28631966  0.18479358     0.01100
C28         C  0.31972984  0.29546482  0.21517761     0.07100
C29         C  0.34036719  0.32765403  0.22288732    -0.06000
H30         H  0.32506628  0.26288783  0.17014964     0.07800
H31         H  0.33703990  0.34310132  0.24514251     0.09000
Cu32       Cu  0.39315214  0.31443663  0.12760297     0.44200
Cu33       Cu  0.40701173  0.38207797  0.19520577     0.42000
Cu34       Cu  0.46839838  0.38581936  0.12585906     0.43900
N35         N  0.42265237  0.32779667  0.07388097    -0.34600
N36         N  0.45069904  0.35379416  0.07337060    -0.28900
C37         C  0.46090228  0.35994328  0.03140717    -0.05000
C38         C  0.43791097  0.33702144  0.00420915     0.07200
C39         C  0.41414048  0.31686011  0.03232424     0.01000
H40         H  0.48153498  0.38173059  0.02102574     0.08700
H41         H  0.39098633  0.29788992  0.02293416     0.07800
N42         N  0.47480535  0.42281483  0.16704206    -0.36100
N43         N  0.45188232  0.42271875  0.18933130    -0.28300
C44         C  0.46204396  0.45260823  0.20408193    -0.03500
C45         C  0.49295034  0.47209645  0.19136146     0.05100
C46         C  0.50015729  0.45238389  0.16787475     0.03200
H47         H  0.44756674  0.45996004  0.22086259     0.08300
H48         H  0.52119632  0.45967486  0.14896748     0.07100
N49         N  0.37006602  0.34648151  0.75030503    -0.27200
N50         N  0.35822571  0.32832061  0.78551664    -0.35100
C51         C  0.32861710  0.30520952  0.77691786     0.01100
C52         C  0.32169208  0.30856337  0.73401755     0.07100
C53         C  0.34840306  0.33484828  0.71793017    -0.06000
H54         H  0.31367936  0.28663797  0.79969637     0.07800
H55         H  0.35186122  0.34470259  0.68515974     0.09000
Cu56       Cu  0.38367841  0.33287669  0.84182201     0.44200
Cu57       Cu  0.41523230  0.38619873  0.74857411     0.42000
Cu58       Cu  0.46619123  0.38897175  0.83564285     0.43900
N59         N  0.41479700  0.33894781  0.89141893    -0.34600
N60         N  0.44520025  0.35935470  0.88893444    -0.28900
C61         C  0.45846670  0.36035176  0.92793817    -0.05000
C62         C  0.43530463  0.33936742  0.95621329     0.07200
C63         C  0.40793163  0.32607497  0.93188138     0.01000
H64         H  0.48278563  0.37668434  0.93596616     0.08700
H65         H  0.38446461  0.31008658  0.94367668     0.07800
N66         N  0.47962364  0.42419074  0.78900811    -0.36100
N67         N  0.46070319  0.42424989  0.75864195    -0.28300
C68         C  0.47404415  0.45366463  0.74142789    -0.03500
C69         C  0.50289533  0.47273665  0.76133516     0.05100
C70         C  0.50547273  0.45326486  0.79146023     0.03200
H71         H  0.46232625  0.46141590  0.71937430     0.08300
H72         H  0.52300680  0.46075764  0.81707542     0.07100
N73         N  0.64466334  0.64253509  0.76121456    -0.27200
N74         N  0.65287521  0.66330358  0.79424537    -0.35100
C75         C  0.68114766  0.68877510  0.78573998     0.01100
C76         C  0.69084860  0.68408437  0.74515395     0.07100
C77         C  0.66734320  0.65460527  0.73044391    -0.06000
H78         H  0.69338777  0.70935921  0.80725208     0.07800
H79         H  0.66666938  0.64288614  0.69959446     0.09000
Cu80       Cu  0.62493030  0.65812313  0.84809187     0.44200
Cu81       Cu  0.60309888  0.59875322  0.75907063     0.42000
Cu82       Cu  0.54797335  0.58960299  0.84371287     0.43900
N83         N  0.59219435  0.64750509  0.89739856    -0.34600
N84         N  0.56365884  0.62228412  0.89550062    -0.28900
C85         C  0.54939807  0.61917723  0.93447860    -0.05000
C86         C  0.56998600  0.64359179  0.96237401     0.07200
C87         C  0.59682905  0.66125990  0.93758303     0.01000
H88         H  0.52676297  0.59907249  0.94303153     0.08700
H89         H  0.61898154  0.68093737  0.94906453     0.07800
N90         N  0.53938920  0.55479819  0.79691082    -0.36100
N91         N  0.55986310  0.55736664  0.76687860    -0.28300
C92         C  0.54894630  0.52882189  0.74683127    -0.03500
C93         C  0.52001886  0.50759970  0.76465034     0.05100
C94         C  0.51489338  0.52479832  0.79649147     0.03200
H95         H  0.56195437  0.52343743  0.72320104     0.08300
H96         H  0.49598210  0.51549379  0.82017364     0.07100
N97         N  0.63355527  0.97299659  0.18765850    -0.27200
N98         N  0.64019329  0.95899406  0.15533183    -0.35100
C99         C  0.66810869  0.96212707  0.16332108     0.01100
C100        C  0.67941036  0.97823596  0.20292550     0.07100
C101        C  0.65720602  0.98527183  0.21718929    -0.06000
H102        H  0.67972023  0.95397979  0.14123809     0.07800
H103        H  0.65855478  0.99912200  0.24609346     0.09000
Cu104      Cu  0.61224264  0.93706072  0.10031931     0.44200
Cu105      Cu  0.59301607  0.97564380  0.18911830     0.42000
Cu106      Cu  0.53699526  0.92887056  0.10332463     0.43900
N107        N  0.58110541  0.91855035  0.04777007    -0.34600
N108        N  0.55317562  0.91534492  0.04919797    -0.28900
C109        C  0.54028005  0.90742736  0.00869575    -0.05000
C110        C  0.56112435  0.90562173  0.98026262     0.07200
C111        C  0.58668105  0.91257274  0.00628931     0.01000
H112        H  0.51853432  0.90582708  0.99989933     0.08700
H113        H  0.60875726  0.91582177  0.99516784     0.07800
N114        N  0.52876274  0.95359240  0.15219480    -0.36100
N115        N  0.54972120  0.97228160  0.18200515    -0.28300
C116        C  0.53923120  0.98950450  0.20273644    -0.03500
C117        C  0.51004184  0.98060892  0.18585498     0.05100
C118        C  0.50434790  0.95802833  0.15368439     0.03200
H119        H  0.55269146  0.00852880  0.22625445     0.08300
H120        H  0.48532900  0.94794900  0.13008411     0.07100
N121        N  0.37286369  0.01029609  0.20370399    -0.27200
N122        N  0.36963980  0.03109012  0.18028129    -0.35100
C123        C  0.34313509  0.02999178  0.19237001     0.01100
C124        C  0.32878867  0.00722509  0.22456534     0.07100
C125        C  0.34802881  0.99496308  0.23075006    -0.06000
H126        H  0.33405811  0.04342111  0.17699423     0.07800
H127        H  0.34400767  0.97595897  0.25273866     0.09000
Cu128      Cu  0.39869335  0.05664643  0.12842848     0.44200
Cu129      Cu  0.41113816  0.00394243  0.19775141     0.42000
Cu130      Cu  0.47242242  0.06113685  0.12697716     0.43900
N131        N  0.42807609  0.07188952  0.07414963    -0.34600
N132        N  0.45559751  0.07412406  0.07402594    -0.28900
C133        C  0.46663066  0.07897594  0.03247807    -0.05000
C134        C  0.44491225  0.07965786  0.00506741     0.07200
C135        C  0.42083491  0.07527482  0.03263866     0.01000
H136        H  0.48745388  0.07895181  0.02249024     0.08700
H137        H  0.39854472  0.07199062  0.02281188     0.07800
N138        N  0.47770374  0.03051126  0.16731025    -0.36100
N139        N  0.45454903  0.00749911  0.19007053    -0.28300
C140        C  0.46342806  0.98715781  0.20347529    -0.03500
C141        C  0.49381112  0.99845682  0.18936410     0.05100
C142        C  0.50194067  0.02580616  0.16634574     0.03200
H143        H  0.44827263  0.96482657  0.21983917     0.08300
H144        H  0.52260802  0.03929751  0.14628316     0.07100
N145        N  0.37609842  0.01854669  0.74512215    -0.27200
N146        N  0.36857571  0.03031594  0.77935430    -0.35100
C147        C  0.34009287  0.02618721  0.77273743     0.01100
C148        C  0.32921313  0.01125926  0.73240807     0.07100
C149        C  0.35251189  0.00678052  0.71559604    -0.06000
H150        H  0.32827961  0.03364651  0.79555306     0.07800
H151        H  0.35228091  0.99571394  0.68434404     0.09000
Cu152      Cu  0.39673915  0.05134201  0.83408018     0.44200
Cu153      Cu  0.41796203  0.01863215  0.74091160     0.42000
Cu154      Cu  0.47178938  0.05954685  0.83260642     0.43900
N155        N  0.42640140  0.06753745  0.88799371    -0.34600
N156        N  0.45423629  0.07051548  0.88762864    -0.28900
C157        C  0.46595988  0.07708467  0.92888583    -0.05000
C158        C  0.44438239  0.07830067  0.95647108     0.07200
C159        C  0.41966854  0.07229524  0.92936282     0.01000
H160        H  0.48756160  0.07866210  0.93850576     0.08700
H161        H  0.39749982  0.06932168  0.93940141     0.07800
N162        N  0.48076610  0.03761386  0.78065392    -0.36100
N163        N  0.46091200  0.02139970  0.74833131    -0.28300
C164        C  0.47133817  0.00457796  0.72632201    -0.03500
C165        C  0.49926183  0.01103452  0.74526260     0.05100
C166        C  0.50429226  0.03185032  0.77969347     0.03200
H167        H  0.45817777  0.98679437  0.70115035     0.08300
H168        H  0.52181028  0.03928999  0.80532188     0.07100
N169        N  0.63234297  0.97639298  0.73097499    -0.27200
N170        N  0.63578453  0.95658027  0.75638493    -0.35100
C171        C  0.66232806  0.95746514  0.74510705     0.01100
C172        C  0.67635666  0.97895866  0.71127435     0.07100
C173        C  0.65692899  0.99072772  0.70326280    -0.06000
H174        H  0.67126869  0.94418102  0.76128254     0.07800
H175        H  0.66041441  0.00840138  0.67915844     0.09000
Cu176      Cu  0.60592644  0.93119241  0.80803060     0.44200
Cu177      Cu  0.59385122  0.98234380  0.73467407     0.42000
Cu178      Cu  0.53446535  0.93106159  0.81386661     0.43900
N179        N  0.57632055  0.91442001  0.86232337    -0.34600
N180        N  0.54967941  0.91402595  0.86414264    -0.28900
C181        C  0.53874249  0.90786104  0.90575104    -0.05000
C182        C  0.55969497  0.90456210  0.93158135     0.07200
C183        C  0.58307876  0.90854525  0.90281379     0.01000
H184        H  0.51889715  0.90921779  0.91721544     0.08700
H185        H  0.60491190  0.91030193  0.91149700     0.07800
N186        N  0.52916722  0.96010425  0.77009350    -0.36100
N187        N  0.55122496  0.98015478  0.74291341    -0.28300
C188        C  0.54241916  0.99969771  0.72601551    -0.03500
C189        C  0.51325407  0.99107842  0.74275490     0.05100
C190        C  0.50580599  0.96613766  0.77082192     0.03200
H191        H  0.55719313  0.02021432  0.70590855     0.08300
H192        H  0.48640865  0.95546739  0.79369952     0.07100
C193        C  0.76812146  0.72664048  0.26353237     0.86500
C194        C  0.73768270  0.70198513  0.24005541    -0.53700
C195        C  0.71255746  0.70504276  0.24969273     0.09500
C196        C  0.71979782  0.73230396  0.28236165     0.20400
C197        C  0.77257159  0.75953026  0.25258802    -0.54400
C198        C  0.74713642  0.76222217  0.26170389     0.09600
C199        C  0.75932942  0.72321077  0.31300110    -0.54000
C200        C  0.73423073  0.72616033  0.32293710     0.10100
H201        H  0.73631296  0.68406988  0.21716011     0.14700
H202        H  0.69952748  0.73503459  0.28991247     0.00400
H203        H  0.79436580  0.77930929  0.24036120     0.15000
H204        H  0.77294579  0.72130746  0.33919963     0.14700
C205        C  0.03072416  0.75458334  0.21691005     0.86500
C206        C  0.02129125  0.72506350  0.18766473    -0.53700
C207        C  0.99380150  0.69864476  0.19946132     0.09500
C208        C  0.97713174  0.70407787  0.23838685     0.20400
C209        C  0.00205328  0.75892096  0.21334714    -0.54400
C210        C  0.97421582  0.73269787  0.22522013     0.09600
C211        C  0.02888427  0.74343678  0.26473855    -0.54000
C212        C  0.00121603  0.71699475  0.27592384     0.10100
H213        H  0.03498391  0.72490535  0.15986932     0.14700
H214        H  0.95456596  0.68259467  0.24749851     0.00400
H215        H  0.00266311  0.78009703  0.20221728     0.15000
H216        H  0.04756145  0.75652849  0.28858074     0.14700
C217        C  0.76744344  0.02405361  0.22536426     0.86500
C218        C  0.76319032  0.02356157  0.27577103    -0.53700
C219        C  0.73775905  0.99659259  0.29168667     0.09500
C220        C  0.71882659  0.97194300  0.25521698     0.20400
C221        C  0.76823521  0.99319164  0.21647515    -0.54400
C222        C  0.74291239  0.96589936  0.23224630     0.09600
C223        C  0.73628962  0.01695705  0.20560246    -0.54000
C224        C  0.71090854  0.99000807  0.22113528     0.10100
H225        H  0.77961602  0.04283980  0.29724073     0.14700
H226        H  0.69836288  0.94988143  0.26796582     0.00400
H227        H  0.78778651  0.99257001  0.20209612     0.15000
H228        H  0.73452984  0.03180910  0.18078923     0.14700
C229        C  0.97535486  0.23014048  0.20548151     0.86500
C230        C  0.98151626  0.26084652  0.18234631    -0.53700
C231        C  0.00974128  0.28708409  0.19309106     0.09500
C232        C  0.02931772  0.28059160  0.22560905     0.20400
C233        C  0.00385122  0.22781074  0.19207844    -0.54400
C234        C  0.03236585  0.25363366  0.20352419     0.09600
C235        C  0.97964891  0.23936656  0.25474309    -0.54000
C236        C  0.00774602  0.26543367  0.26516852     0.10100
H237        H  0.96594063  0.26257856  0.15937601     0.14700
H238        H  0.05149106  0.30206029  0.23582811     0.00400
H239        H  0.00106266  0.20677237  0.17542057     0.15000
H240        H  0.96210714  0.22582901  0.27962780     0.14700
C241        C  0.23280954  0.25148373  0.24789077     0.86500
C242        C  0.26255097  0.27456146  0.22151089    -0.53700
C243        C  0.28877754  0.27488115  0.23512785     0.09500
C244        C  0.28329744  0.25242277  0.27369291     0.20400
C245        C  0.23081269  0.21915421  0.24421129    -0.54400
C246        C  0.25696914  0.21949578  0.25788668     0.09600
C247        C  0.24260850  0.26295274  0.29580342    -0.54000
C248        C  0.26836963  0.26260549  0.30994386     0.10100
H249        H  0.26368692  0.29016765  0.19557717     0.14700
H250        H  0.30467290  0.25259857  0.28409014     0.00400
H251        H  0.21027342  0.19770312  0.23180826     0.15000
H252        H  0.22947791  0.26968155  0.31741596     0.14700
C253        C  0.24160363  0.95797124  0.25334226     0.86500
C254        C  0.24918810  0.96515866  0.30332631    -0.53700
C255        C  0.27342031  0.99507519  0.31272561     0.09500
C256        C  0.28847454  0.01540477  0.27181651     0.20400
C257        C  0.23729104  0.98526813  0.23763466    -0.54400
C258        C  0.26108580  0.01535752  0.24819101     0.09600
C259        C  0.27300270  0.96512140  0.23379284    -0.54000
C260        C  0.29724545  0.99522862  0.24255629     0.10100
H261        H  0.23778478  0.94881041  0.33013023     0.14700
H262        H  0.30853299  0.03940381  0.28022546     0.00400
H263        H  0.21664122  0.98047173  0.21975238     0.15000
H264        H  0.27608167  0.94790181  0.21513067     0.14700
C265        C  0.77438053  0.73281480  0.70082815     0.86500
C266        C  0.76271100  0.72553862  0.65284607    -0.53700
C267        C  0.73483549  0.72349112  0.64580644     0.09500
C268        C  0.72120298  0.72997062  0.68727066     0.20400
C269        C  0.77525290  0.76444500  0.71093388    -0.54400
C270        C  0.74728590  0.76276289  0.70391391     0.09600
C271        C  0.74730295  0.70823175  0.72939401    -0.54000
C272        C  0.71958816  0.70643775  0.72176487     0.10100
H273        H  0.77633622  0.72371377  0.62613013     0.14700
H274        H  0.69860407  0.72840215  0.68068202     0.00400
H275        H  0.79578306  0.78673604  0.72055729     0.15000
H276        H  0.74977294  0.69317942  0.75309428     0.14700
C277        C  0.03583874  0.76147580  0.66700515     0.86500
C278        C  0.03289909  0.75802673  0.61638468    -0.53700
C279        C  0.00485466  0.73357733  0.60135715     0.09500
C280        C  0.98205990  0.71413031  0.63862982     0.20400
C281        C  0.00698726  0.76373123  0.68071479    -0.54400
C282        C  0.97912035  0.73897119  0.66598242     0.09600
C283        C  0.02802319  0.72860578  0.68350177    -0.54000
C284        C  0.00024349  0.70395250  0.66828156     0.10100
H285        H  0.05174309  0.77349207  0.59424480     0.14700
H286        H  0.95922627  0.69402633  0.62688105     0.00400
H287        H  0.00746996  0.78302171  0.69909704     0.15000
H288        H  0.04305372  0.72519777  0.70572357     0.14700
C289        C  0.76368768  0.01947941  0.68378944     0.86500
C290        C  0.73359694  0.01607993  0.70337998    -0.53700
C291        C  0.70687377  0.98877811  0.69098694     0.09500
C292        C  0.71234801  0.96675470  0.66059118     0.20400
C293        C  0.76235206  0.98846327  0.69807267    -0.54400
C294        C  0.73521311  0.96089242  0.68676432     0.09600
C295        C  0.75830613  0.01468795  0.63387448    -0.54000
C296        C  0.73179200  0.98755277  0.62157158     0.10100
H297        H  0.73355136  0.03270629  0.72734711     0.14700
H298        H  0.69041604  0.94474685  0.65054768     0.00400
H299        H  0.78113833  0.98738797  0.71378697     0.15000
H300        H  0.77476941  0.03117062  0.60980705     0.14700
C301        C  0.97327447  0.22197582  0.64863823     0.86500
C302        C  0.97942965  0.22661656  0.59845906    -0.53700
C303        C  0.00831850  0.25115925  0.58722423     0.09500
C304        C  0.02800957  0.27057929  0.62741168     0.20400
C305        C  0.00120252  0.22080061  0.66755014    -0.54400
C306        C  0.02964792  0.24603368  0.65644376     0.09600
C307        C  0.97816333  0.25453333  0.66323857    -0.54000
C308        C  0.00695383  0.27983953  0.65277324     0.10100
H309        H  0.96194050  0.21355344  0.57324977     0.14700
H310        H  0.05136516  0.29113981  0.61883820     0.00400
H311        H  0.99865685  0.20116151  0.68715736     0.15000
H312        H  0.96084835  0.25730969  0.68128003     0.14700
C313        C  0.23757276  0.26222291  0.69019547     0.86500
C314        C  0.24888086  0.27039023  0.64221568    -0.53700
C315        C  0.27648394  0.27207913  0.63362711     0.09500
C316        C  0.29005975  0.26413300  0.67331057     0.20400
C317        C  0.23604175  0.23005954  0.69677440    -0.54400
C318        C  0.26353960  0.23116487  0.68813747     0.09600
C319        C  0.26517163  0.28599261  0.71925140    -0.54000
C320        C  0.29255609  0.28727422  0.71001851     0.10100
H321        H  0.23536197  0.27321307  0.61658112     0.14700
H322        H  0.31232952  0.26517897  0.66559157     0.00400
H323        H  0.21523736  0.20777341  0.70520102     0.15000
H324        H  0.26326719  0.30082489  0.74453372     0.14700
C325        C  0.24465219  0.96864304  0.68936518     0.86500
C326        C  0.27243260  0.97422456  0.71873549    -0.53700
C327        C  0.29932629  0.00257082  0.71138998     0.09500
C328        C  0.29641122  0.02318936  0.67627735     0.20400
C329        C  0.24189973  0.99817811  0.69798317    -0.54400
C330        C  0.26891845  0.02698089  0.69200308     0.09600
C331        C  0.25787340  0.97282462  0.64244637    -0.54000
C332        C  0.28436562  0.00137909  0.63515429     0.10100
H333        H  0.27227460  0.95729735  0.74152367     0.14700
H334        H  0.31875968  0.04579742  0.67065354     0.00400
H335        H  0.21969221  0.99601163  0.70601906     0.15000
H336        H  0.24645762  0.95505129  0.61641140     0.14700
N337        N  0.02119991  0.35856248  0.68438478    -0.27200
N338        N  0.04046726  0.35556129  0.71104644    -0.35100
C339        C  0.03920493  0.32801691  0.70205146     0.01100
C340        C  0.01795353  0.31254736  0.66851821     0.07100
C341        C  0.00670605  0.33235895  0.65815300    -0.06000
H342        H  0.05141796  0.31903435  0.72061447     0.07800
H343        H  0.98892911  0.32778275  0.63399122     0.09000
Cu344      Cu  0.06392842  0.38524797  0.76406678     0.44200
Cu345      Cu  0.01549387  0.39825732  0.68617030     0.42000
Cu346      Cu  0.06475684  0.45746733  0.76884338     0.43900
N347        N  0.07674008  0.41317622  0.82063452    -0.34600
N348        N  0.07745381  0.44048413  0.82203587    -0.28900
C349        C  0.08060061  0.45051023  0.86421038    -0.05000
C350        C  0.08159441  0.42823872  0.89076457     0.07200
C351        C  0.07932964  0.40496132  0.86197948     0.01000
H352        H  0.07904899  0.47078039  0.87502560     0.08700
H353        H  0.07677538  0.38237933  0.87069990     0.07800
N354        N  0.03854351  0.46459903  0.72286965    -0.36100
N355        N  0.01875865  0.44258956  0.69476412    -0.28300
C356        C  0.00068953  0.45283155  0.67720544    -0.03500
C357        C  0.01012986  0.48289745  0.69439612     0.05100
C358        C  0.03393966  0.48930399  0.72341676     0.03200
H359        H  0.98068694  0.43852398  0.65611493     0.08300
H360        H  0.04472760  0.50889843  0.74688872     0.07100
N361        N  0.98250349  0.62396080  0.69535485    -0.27200
N362        N  0.96626485  0.62888226  0.72580083    -0.35100
C363        C  0.96895208  0.65726033  0.71914232     0.01100
C364        C  0.98768641  0.67098853  0.68281897     0.07100
C365        C  0.99615148  0.64947253  0.66860863    -0.06000
H366        H  0.95933784  0.66785148  0.74067185     0.07800
H367        H  0.01186671  0.65261115  0.64179825     0.09000
Cu368      Cu  0.94417792  0.59953885  0.77891490     0.44200
Cu369      Cu  0.98640773  0.58326461  0.69350512     0.42000
Cu370      Cu  0.94079942  0.52554196  0.77869604     0.43900
N371        N  0.92894301  0.56981040  0.83285366    -0.34600
N372        N  0.92743591  0.54209567  0.83268175    -0.28900
C373        C  0.92133865  0.53040320  0.87386263    -0.05000
C374        C  0.91907570  0.55194482  0.90131126     0.07200
C375        C  0.92385369  0.57657350  0.87411205     0.01000
H376        H  0.92117193  0.50914857  0.88367527     0.08700
H377        H  0.92596748  0.59888170  0.88411227     0.07800
N378        N  0.96517130  0.51772946  0.72955180    -0.36100
N379        N  0.98341616  0.53912989  0.70014390    -0.28300
C380        C  0.00046164  0.52851908  0.67960469    -0.03500
C381        C  0.99190972  0.49879002  0.69617933     0.05100
C382        C  0.96975105  0.49300812  0.72798743     0.03200
H383        H  0.01927052  0.54238517  0.65672014     0.08300
H384        H  0.96013136  0.47380819  0.75155428     0.07100
N385        N  0.02814607  0.36553683  0.15741124    -0.27200
N386        N  0.03647328  0.35535502  0.12215585    -0.35100
C387        C  0.03216490  0.32646813  0.13036984     0.01100
C388        C  0.02097989  0.31818901  0.17276240     0.07100
C389        C  0.01858153  0.34330669  0.18909368    -0.06000
H390        H  0.03605757  0.31214132  0.10670534     0.07800
H391        H  0.00925291  0.34468829  0.22082255     0.09000
Cu392      Cu  0.05177232  0.37898202  0.06256652     0.44200
Cu393      Cu  0.02662361  0.40738189  0.15979801     0.42000
Cu394      Cu  0.05734286  0.45378317  0.06126451     0.43900
N395        N  0.06624580  0.40748124  0.00707440    -0.34600
N396        N  0.06880784  0.43568393  0.00732763    -0.28900
C397        C  0.07619440  0.44794651  0.96660022    -0.05000
C398        C  0.07839209  0.42641374  0.93918536     0.07200
C399        C  0.07201296  0.40098033  0.96596074     0.01000
H400        H  0.07805472  0.47009971  0.95719510     0.08700
H401        H  0.07006232  0.37875908  0.95587638     0.07800
N402        N  0.03667678  0.46519282  0.11163310    -0.36100
N403        N  0.02451953  0.44814692  0.14765129    -0.28300
C404        C  0.00811737  0.45912623  0.16918628    -0.03500
C405        C  0.01051181  0.48443907  0.14563863     0.05100
C406        C  0.02851267  0.48728194  0.10929928     0.03200
H407        H  0.99336391  0.44780289  0.19752999     0.08300
H408        H  0.03284991  0.50232832  0.08102738     0.07100
N409        N  0.97748809  0.62079692  0.16062564    -0.27200
N410        N  0.96320036  0.62767385  0.12978010    -0.35100
C411        C  0.96600262  0.65593922  0.13953323     0.01100
C412        C  0.98257528  0.66728277  0.17847071     0.07100
C413        C  0.98967535  0.64461298  0.19085404    -0.06000
H414        H  0.95729386  0.66771390  0.11917680     0.07800
H415        H  0.00338194  0.64575971  0.21916430     0.09000
Cu416      Cu  0.94213404  0.59972425  0.07399759     0.44200
Cu417      Cu  0.98082646  0.57979388  0.15966475     0.42000
Cu418      Cu  0.93688643  0.52407184  0.07209766     0.43900
N419        N  0.92724021  0.56971277  0.01907887    -0.34600
N420        N  0.92511279  0.54168417  0.01868821    -0.28900
C421        C  0.91974951  0.53009014  0.97713283    -0.05000
C422        C  0.91851549  0.55191470  0.94995153     0.07200
C423        C  0.92313915  0.57666261  0.97771123     0.01000
H424        H  0.91941663  0.50866068  0.96700709     0.08700
H425        H  0.92591157  0.59917985  0.96808247     0.07800
N426        N  0.96138730  0.51557887  0.11928719    -0.36100
N427        N  0.97899516  0.53636932  0.15018450    -0.28300
C428        C  0.99707115  0.52638819  0.16842894    -0.03500
C429        C  0.99011120  0.49782717  0.14835836     0.05100
C430        C  0.96758654  0.49199308  0.11724871     0.03200
H431        H  0.01599011  0.54039739  0.19132080     0.08300
H432        H  0.95907330  0.47394251  0.09146611     0.07100
C433        C  0.28829425  0.17143649  0.71580564    -0.22400
C434        C  0.26793426  0.14541612  0.68900461     0.09600
C435        C  0.24658393  0.14780299  0.66131920     0.10000
C436        C  0.24586564  0.17613259  0.66144522    -0.17300
C437        C  0.26613919  0.20221023  0.68845747    -0.27800
C438        C  0.28769243  0.19982997  0.71588025     0.18300
C439        C  0.26926387  0.11582108  0.69088166     0.12300
C440        C  0.22457508  0.12043061  0.63178096    -0.12100
H441        H  0.22943598  0.17800789  0.64029135     0.12500
C442        C  0.30912483  0.22652249  0.74672110    -0.22900
H443        H  0.30457042  0.16936041  0.73703102     0.08200
C444        C  0.29021876  0.11169697  0.66447844     0.04500
C445        C  0.29086894  0.08345791  0.66765124    -0.20200
C446        C  0.27066493  0.05862117  0.69604398    -0.12400
C447        C  0.25166667  0.06434008  0.72546723     0.13200
C448        C  0.25047448  0.09229675  0.72133977    -0.22900
C449        C  0.31173182  0.13703034  0.63256644    -0.06000
H450        H  0.30724397  0.08105241  0.64721022     0.14800
C451        C  0.23428271  0.04314946  0.76388566    -0.16100
H452        H  0.23547484  0.09628206  0.74311789     0.09100
H453        H  0.32577773  0.24781753  0.72769867     0.06900
H454        H  0.32308342  0.21987133  0.76758155     0.08100
H455        H  0.29508754  0.23248198  0.76895801     0.07200
H456        H  0.20929887  0.09922300  0.65208512     0.02100
H457        H  0.23811918  0.11453968  0.60842125     0.02500
H458        H  0.20942805  0.12622609  0.61218127     0.06000
H459        H  0.32655012  0.12998766  0.61407643     0.05000
H460        H  0.32736674  0.15951729  0.65084051    -0.00700
H461        H  0.29779813  0.14135130  0.60822172     0.00700
H462        H  0.23966104  0.05787354  0.79442544     0.04400
H463        H  0.24136255  0.02560171  0.77081979     0.06300
H464        H  0.20872163  0.03071281  0.75771965     0.07200
C465        C  0.09901997  0.23401327  0.65639356    -0.22400
C466        C  0.11790120  0.25570567  0.68925649     0.09600
C467        C  0.10749839  0.27386989  0.71199783     0.10000
C468        C  0.07839115  0.26999057  0.70093212    -0.17300
C469        C  0.05944147  0.24814003  0.66811889    -0.27800
C470        C  0.06976485  0.22961047  0.64598423     0.18300
C471        C  0.14886483  0.25943370  0.69757878     0.12300
C472        C  0.12685419  0.29694210  0.74818680    -0.12100
H473        H  0.07031121  0.28390746  0.71809644     0.12500
C474        C  0.05085351  0.20519682  0.61096080    -0.22900
H475        H  0.10720613  0.22029592  0.63872082     0.08200
C476        C  0.15177775  0.23515379  0.71717061     0.04500
C477        C  0.18099425  0.23740201  0.71734970    -0.20200
C478        C  0.20763795  0.26337687  0.69803135    -0.12400
C479        C  0.20501777  0.28963708  0.68370799     0.13200
C480        C  0.17556886  0.28669565  0.68231454    -0.22900
C481        C  0.12397109  0.20680782  0.73784429    -0.06000
H482        H  0.18246158  0.21847010  0.73267375     0.14800
C483        C  0.23214912  0.32110606  0.66854501    -0.16100
H484        H  0.17332297  0.30570260  0.66827699     0.09100
H485        H  0.04764538  0.18180774  0.62013817     0.06900
H486        H  0.06324934  0.21260597  0.57881010     0.08100
H487        H  0.02742513  0.20179332  0.60698843     0.07200
H488        H  0.14949406  0.31594803  0.73472071     0.02100
H489        H  0.13130119  0.28412233  0.77445605     0.02500
H490        H  0.11483854  0.30850700  0.76338948     0.06000
H491        H  0.13041021  0.19043045  0.75301585     0.05000
H492        H  0.10576456  0.19310444  0.71251989    -0.00700
H493        H  0.11409060  0.21507046  0.76409940     0.00700
H494        H  0.22886707  0.32466943  0.63326968     0.04400
H495        H  0.25520547  0.32345674  0.67234836     0.06300
H496        H  0.23287432  0.34070051  0.68836670     0.07200
C497        C  0.82660201  0.10877246  0.67795162    -0.22400
C498        C  0.85301091  0.10882004  0.69291877     0.09600
C499        C  0.84963550  0.08126716  0.71226818     0.10000
C500        C  0.82001903  0.05335489  0.71316926    -0.17300
C501        C  0.79358327  0.05183876  0.69360547    -0.27800
C502        C  0.79693022  0.08096297  0.67822850     0.18300
C503        C  0.88412561  0.13675545  0.68281754     0.12300
C504        C  0.87760249  0.08098518  0.73020712    -0.12100
H505        H  0.81856933  0.03273961  0.72775634     0.12500
C506        C  0.76990057  0.08348229  0.66087176    -0.22900
H507        H  0.82957834  0.13045874  0.66399610     0.08200
C508        C  0.89761852  0.13961764  0.64099770     0.04500
C509        C  0.92632623  0.16689741  0.63135149    -0.20200
C510        C  0.94210010  0.19230600  0.66205571    -0.12400
C511        C  0.92960798  0.18757043  0.70573021     0.13200
C512        C  0.90030273  0.16045314  0.71485021    -0.22900
C513        C  0.88181615  0.11356730  0.60652354    -0.06000
H514        H  0.93662825  0.16726721  0.59982868     0.14800
C515        C  0.94645708  0.20947256  0.74437580    -0.16100
H516        H  0.89027445  0.15741251  0.74757360     0.09100
H517        H  0.77763082  0.10799585  0.64977912     0.06900
H518        H  0.75247588  0.07795785  0.68727831     0.08100
H519        H  0.75857848  0.06756058  0.63205550     0.07200
H520        H  0.88863842  0.09913211  0.75696115     0.02100
H521        H  0.89490570  0.08651995  0.70345294     0.02500
H522        H  0.87108063  0.05743233  0.74399143     0.06000
H523        H  0.89569052  0.11937168  0.57560659     0.05000
H524        H  0.85860707  0.11001230  0.59808856    -0.00700
H525        H  0.87868986  0.09097336  0.61941337     0.00700
H526        H  0.93345541  0.22104996  0.75569172     0.04400
H527        H  0.97088042  0.22803229  0.73737990     0.06300
H528        H  0.94753171  0.19532191  0.77197811     0.07200
C529        C  0.12549936  0.81962710  0.67354436    -0.22400
C530        C  0.12738746  0.84499079  0.69787371     0.09600
C531        C  0.10025955  0.84150504  0.71753668     0.10000
C532        C  0.07142404  0.81344966  0.71009266    -0.17300
C533        C  0.06845266  0.78884099  0.68175888    -0.27800
C534        C  0.09668706  0.79147596  0.66566117     0.18300
C535        C  0.15707319  0.87624190  0.69789522     0.12300
C536        C  0.10165059  0.86790406  0.74547553    -0.12100
H537        H  0.05146047  0.81164249  0.72654160     0.12500
C538        C  0.09804410  0.76595094  0.63896043    -0.22900
H539        H  0.14665393  0.82227111  0.65920002     0.08200
C540        C  0.18074947  0.88477025  0.72944405     0.04500
C541        C  0.20830657  0.91487205  0.72714066    -0.20200
C542        C  0.21308404  0.93700495  0.69379399    -0.12400
C543        C  0.18782595  0.92849162  0.66377797     0.13200
C544        C  0.16082643  0.89817777  0.66585941    -0.22900
C545        C  0.17683560  0.86206326  0.76551568    -0.06000
H546        H  0.22567607  0.92067384  0.75224666     0.14800
C547        C  0.18762128  0.95005578  0.62859052    -0.16100
H548        H  0.14208298  0.89163417  0.64232970     0.09100
H549        H  0.11346661  0.75927443  0.65600696     0.06900
H550        H  0.10799147  0.77536267  0.60586048     0.08100
H551        H  0.07530770  0.74382898  0.63403464     0.07200
H552        H  0.11049530  0.88975583  0.72548518     0.02100
H553        H  0.11751016  0.87312525  0.77400749     0.02500
H554        H  0.07830537  0.86147154  0.75850709     0.06000
H555        H  0.19747909  0.87234752  0.78777404     0.05000
H556        H  0.17368866  0.83974845  0.75070622    -0.00700
H557        H  0.15601412  0.85628815  0.78577254     0.00700
H558        H  0.18585309  0.93919186  0.59551553     0.04400
H559        H  0.20822278  0.97436372  0.62841302     0.06300
H560        H  0.16694132  0.95259780  0.63344644     0.07200
C561        C  0.71634105  0.81845144  0.72556102    -0.22400
C562        C  0.73672481  0.84452651  0.69965253     0.09600
C563        C  0.76181852  0.84469099  0.67774110     0.10000
C564        C  0.76474309  0.81775123  0.68000561    -0.17300
C565        C  0.74384311  0.79114828  0.70496995    -0.27800
C566        C  0.71984926  0.79190507  0.72906098     0.18300
C567        C  0.73247441  0.87222747  0.69804390     0.12300
C568        C  0.78605659  0.87362791  0.65320877    -0.12100
H569        H  0.78339188  0.81738679  0.66203481     0.12500
C570        C  0.69909719  0.76587186  0.76051854    -0.22900
H571        H  0.69785395  0.81912128  0.74355508     0.08200
C572        C  0.71835790  0.87756967  0.66157958     0.04500
C573        C  0.71736082  0.90566799  0.66029858    -0.20200
C574        C  0.73030154  0.92857136  0.69449204    -0.12400
C575        C  0.74079164  0.92102052  0.73335300     0.13200
C576        C  0.74256162  0.89338525  0.73407152    -0.22900
C577        C  0.70434705  0.85367978  0.62416022    -0.06000
H578        H  0.70758387  0.91023442  0.63149740     0.14800
C579        C  0.74905789  0.94068853  0.77522822    -0.16100
H580        H  0.75182779  0.88823661  0.76304678     0.12100
H581        H  0.68399792  0.74325762  0.74248008     0.06900
H582        H  0.68345459  0.77173164  0.77916907     0.08100
H583        H  0.71382990  0.76272071  0.78481526     0.07200
H584        H  0.79751172  0.89433254  0.67627909     0.02100
H585        H  0.77512275  0.87936130  0.62590667     0.02500
H586        H  0.80444541  0.86989674  0.63879581     0.06000
H587        H  0.69405348  0.86154787  0.59843604     0.05000
H588        H  0.68554784  0.83049793  0.63710738    -0.00700
H589        H  0.72237528  0.85015907  0.60816038     0.00700
H590        H  0.73548245  0.92509777  0.80315455     0.04400
H591        H  0.74320211  0.95961922  0.77378519     0.06300
H592        H  0.77436756  0.95158708  0.78233232     0.07200
C593        C  0.83434119  0.70568752  0.68914232    -0.22400
C594        C  0.86213461  0.73292268  0.70225492     0.09600
C595        C  0.86106333  0.75914240  0.71987766     0.10000
C596        C  0.83239916  0.75814013  0.72144862    -0.17300
C597        C  0.80440354  0.73149643  0.70570422    -0.27800
C598        C  0.80553171  0.70409176  0.69164985     0.18300
C599        C  0.89214605  0.73411007  0.69424253     0.12300
C600        C  0.89015010  0.78820282  0.73738684    -0.12100
H601        H  0.83253256  0.77866531  0.73483009     0.12500
C602        C  0.77745793  0.67257208  0.67766541    -0.22900
H603        H  0.83519156  0.68555384  0.67557217     0.08200
C604        C  0.89990951  0.71353363  0.71561600     0.04500
C605        C  0.92819303  0.71517897  0.70512362    -0.20200
C606        C  0.94899576  0.73720109  0.67444876    -0.12400
C607        C  0.94118338  0.75765228  0.65310181     0.13200
C608        C  0.91270437  0.75554723  0.66279997    -0.22900
C609        C  0.87895466  0.69053145  0.75033197    -0.06000
H610        H  0.93438831  0.69962907  0.72147211     0.14800
C611        C  0.96234307  0.78101073  0.61902594    -0.16100
H612        H  0.90626760  0.77058510  0.64547507     0.09100
H613        H  0.77562435  0.65347768  0.69920037     0.06900
H614        H  0.78060060  0.66704851  0.64302586     0.08100
H615        H  0.75486114  0.67140328  0.67947373     0.07200
H616        H  0.90727793  0.80020179  0.71044334     0.02100
H617        H  0.90086158  0.78107483  0.76344127     0.02500
H618        H  0.88495742  0.80586522  0.75204505     0.06000
H619        H  0.88946147  0.67757336  0.76525128     0.05000
H620        H  0.85620527  0.67250559  0.73569348    -0.00700
H621        H  0.87496521  0.70370669  0.77712664     0.00700
H622        H  0.96500064  0.76767432  0.59124086     0.04400
H623        H  0.98552613  0.79790818  0.63369389     0.06300
H624        H  0.95265167  0.79515900  0.60558793     0.07200
C625        C  0.30726602  0.99505185  0.51808320    -0.22400
C626        C  0.30448681  0.01913373  0.49784234     0.09600
C627        C  0.30110360  0.04101971  0.52460096     0.10000
C628        C  0.29689660  0.03599243  0.57021008    -0.17300
C629        C  0.29748563  0.01063532  0.59009168    -0.27800
C630        C  0.30463890  0.99108104  0.56404289     0.18300
C631        C  0.29916295  0.01722112  0.44936082     0.12300
C632        C  0.30100743  0.06918225  0.50511546    -0.12100
H633        H  0.29039672  0.05028316  0.58949955     0.12500
C634        C  0.30862267  0.96523720  0.58361996    -0.22900
H635        H  0.30979434  0.97812740  0.49781649     0.08200
C636        C  0.32161991  0.02039396  0.41792132     0.04500
C637        C  0.31325130  0.01468074  0.37287732    -0.20200
C638        C  0.28314927  0.00628634  0.35886154    -0.12400
C639        C  0.26164587  0.00550398  0.39012755     0.13200
C640        C  0.26955725  0.00991230  0.43487168    -0.22900
C641        C  0.35426018  0.02988078  0.43172184    -0.06000
H642        H  0.32983845  0.01566565  0.34875512     0.14800
C643        C  0.23026887  0.00049669  0.37754907    -0.16100
H644        H  0.25221137  0.00733325  0.45886305     0.09100
H645        H  0.33184532  0.96911920  0.57416397     0.06900
H646        H  0.29014912  0.94164856  0.57073271     0.08100
H647        H  0.30752022  0.96497507  0.62021953     0.07200
H648        H  0.28059595  0.06129085  0.48309535     0.02100
H649        H  0.32281393  0.08373342  0.48599022     0.02500
H650        H  0.29988004  0.08470477  0.53121139     0.06000
H651        H  0.36911158  0.03249280  0.40275492     0.05000
H652        H  0.35376899  0.01159611  0.45350319    -0.00700
H653        H  0.36524923  0.05307192  0.44967697     0.00700
H654        H  0.21139009  0.97820569  0.39249505     0.04400
H655        H  0.22672262  0.99904142  0.34148633     0.06300
H656        H  0.22838707  0.02088421  0.38993020     0.07200
C657        C  0.31431456  0.28620674  0.41859729    -0.22400
C658        C  0.28985367  0.27010728  0.44874354     0.09600
C659        C  0.25872836  0.25258249  0.43346479     0.10000
C660        C  0.25287863  0.25041538  0.38812499    -0.17300
C661        C  0.27716375  0.26663430  0.35748901    -0.27800
C662        C  0.30833421  0.28528792  0.37311891     0.18300
C663        C  0.29627925  0.27447480  0.49661972     0.12300
C664        C  0.23149251  0.23714261  0.46505913    -0.12100
H665        H  0.22898982  0.23600234  0.37654224     0.12500
C666        C  0.33557313  0.30603576  0.34368042    -0.22900
H667        H  0.33805925  0.30059319  0.43081550     0.08200
C668        C  0.29387311  0.24965554  0.52277199     0.04500
C669        C  0.29009912  0.25071383  0.56858648    -0.20200
C670        C  0.28877355  0.27606947  0.58822287    -0.12400
C671        C  0.29516105  0.30269924  0.56260944     0.13200
C672        C  0.29886537  0.30156760  0.51688162    -0.22900
C673        C  0.29413661  0.22166339  0.50208415    -0.06000
H674        H  0.28600400  0.23071126  0.58861100     0.14800
C675        C  0.29738777  0.33196243  0.58315487    -0.16100
H676        H  0.30139856  0.32081341  0.49648632     0.09100
H677        H  0.35212507  0.29727506  0.34308264     0.06900
H678        H  0.34787964  0.33090298  0.35658727     0.08100
H679        H  0.32836512  0.30685079  0.30963121     0.07200
H680        H  0.23196629  0.25552406  0.48741657     0.02100
H681        H  0.23266941  0.21900418  0.48512451     0.02500
H682        H  0.20872352  0.22511377  0.44738920     0.06000
H683        H  0.29201676  0.20438772  0.52734697     0.05000
H684        H  0.31646195  0.23023839  0.48409145    -0.00700
H685        H  0.27447110  0.20892289  0.47845675     0.00700
H686        H  0.30473627  0.35127598  0.55869545     0.04400
H687        H  0.31485052  0.34107252  0.61032063     0.06300
H688        H  0.27440667  0.32630701  0.59630521     0.07200
C689        C  0.26782510  0.15032801  0.28792733    -0.22400
C690        C  0.26329164  0.13517929  0.24673180     0.09600
C691        C  0.25630413  0.14747363  0.20953441     0.10000
C692        C  0.25503488  0.17534609  0.21406682    -0.17300
C693        C  0.25983655  0.19078304  0.25518514    -0.27800
C694        C  0.26578093  0.17778482  0.29278062     0.18300
C695        C  0.26294875  0.10474511  0.24420996     0.12300
C696        C  0.24948956  0.13073397  0.16534964    -0.12100
H697        H  0.24991927  0.18499454  0.18544617     0.12500
C698        C  0.26812051  0.19150608  0.33836950    -0.22900
H699        H  0.27216095  0.14007814  0.31658245     0.08200
C700        C  0.29003175  0.10353581  0.23538581     0.04500
C701        C  0.28814648  0.07386215  0.23441267    -0.20200
C702        C  0.25983958  0.04519215  0.24259822    -0.12400
C703        C  0.23237274  0.04675052  0.25016334     0.13200
C704        C  0.23459728  0.07651994  0.25109946    -0.22900
C705        C  0.32094626  0.13361831  0.22772903    -0.06000
H706        H  0.30912741  0.07319412  0.22767565     0.14800
C707        C  0.20038282  0.01795224  0.25785166    -0.16100
H708        H  0.21392100  0.07792621  0.25728589     0.09100
H709        H  0.28896329  0.21577804  0.34081132     0.06900
H710        H  0.27040471  0.17688868  0.36417084     0.08100
H711        H  0.24672125  0.19232398  0.34562413     0.07200
H712        H  0.22888506  0.10625995  0.16811814     0.02100
H713        H  0.26995534  0.12931342  0.15423588     0.02500
H714        H  0.24430573  0.14343332  0.13974745     0.06000
H715        H  0.33992501  0.12857130  0.22142897     0.05000
H716        H  0.32740700  0.14942565  0.25727930    -0.00700
H717        H  0.31923993  0.14627351  0.19869483     0.00700
H718        H  0.18344064  0.02473821  0.26948982     0.04400
H719        H  0.20110291  0.00239065  0.28336541     0.06300
H720        H  0.19085168  0.00466837  0.22638928     0.07200
C721        C  0.00437009  0.28571780  0.38523751    -0.22400
C722        C  0.02862808  0.28262649  0.40264757     0.09600
C723        C  0.04906684  0.27927022  0.37379724     0.10000
C724        C  0.04313663  0.27634508  0.32822681    -0.17300
C725        C  0.01707043  0.27637115  0.31125628    -0.27800
C726        C  0.99853285  0.28300246  0.33970892     0.18300
C727        C  0.02804093  0.27643252  0.45040654     0.12300
C728        C  0.07638913  0.27761874  0.39129086    -0.12100
H729        H  0.05764282  0.27186134  0.30612786     0.12500
C730        C  0.97229712  0.28695171  0.32320603    -0.22900
H731        H  0.98887042  0.28857679  0.40748230     0.08200
C732        C  0.03677809  0.30026743  0.48309308     0.04500
C733        C  0.03166965  0.29152813  0.52782101    -0.20200
C734        C  0.01789065  0.25946747  0.54033320    -0.12400
C735        C  0.01108774  0.23595113  0.50715217     0.13200
C736        C  0.01584748  0.24481834  0.46284430    -0.22900
C737        C  0.05111752  0.33468708  0.47068357    -0.06000
H738        H  0.03710192  0.30963891  0.55288123     0.14800
C739        C  0.99900147  0.20126874  0.51615259    -0.16100
H740        H  0.00943960  0.22665619  0.43743836     0.09100
H741        H  0.97625233  0.31043044  0.33437864     0.06900
H742        H  0.94973513  0.26784788  0.33682090     0.08100
H743        H  0.97062447  0.28624280  0.28666654     0.07200
H744        H  0.06808100  0.25655458  0.41275246     0.02100
H745        H  0.09189739  0.29954605  0.41075613     0.02500
H746        H  0.09037164  0.27564805  0.36414614     0.06000
H747        H  0.05712667  0.35037165  0.50031526     0.05000
H748        H  0.03449391  0.33776952  0.45022271    -0.00700
H749        H  0.07286804  0.34241571  0.45155946     0.00700
H750        H  0.99669601  0.19540751  0.55142745     0.04400
H751        H  0.97570511  0.18635964  0.50047222     0.06300
H752        H  0.01533336  0.19453216  0.50176069     0.07200
C753        C  0.14852816  0.23554811  0.25353364    -0.22400
C754        C  0.14615202  0.24873555  0.21410619     0.09600
C755        C  0.17091482  0.26030825  0.18347584     0.10000
C756        C  0.19843670  0.26069210  0.19465634    -0.17300
C757        C  0.20164792  0.24873251  0.23527771    -0.27800
C758        C  0.17483565  0.23349677  0.26331176     0.18300
C759        C  0.11725155  0.24966075  0.20596255     0.12300
C760        C  0.16797330  0.27124900  0.13837785    -0.12100
H761        H  0.21691450  0.26955472  0.17050087     0.12500
C762        C  0.17211645  0.21421128  0.30354045    -0.22900
H763        H  0.12918001  0.22596107  0.27664617     0.08200
C764        C  0.08770065  0.22154483  0.20266529     0.04500
C765        C  0.06077174  0.22369299  0.20153826    -0.20200
C766        C  0.06234436  0.25330078  0.19968940    -0.12400
C767        C  0.09246328  0.28132554  0.19730583     0.13200
C768        C  0.11922594  0.27919147  0.20334304    -0.22900
C769        C  0.08442192  0.18918498  0.19950901    -0.06000
H770        H  0.03842658  0.20175057  0.20321369     0.14800
C771        C  0.09785128  0.31350861  0.18524295    -0.16100
H772        H  0.14199337  0.30084052  0.20479569     0.09100
H773        H  0.15077526  0.19019669  0.30050007     0.06900
H774        H  0.17000207  0.22611518  0.33367174     0.08100
H775        H  0.19173796  0.21020442  0.30806008     0.07200
H776        H  0.16540517  0.29236524  0.14126531     0.02100
H777        H  0.14723646  0.25170870  0.12111367     0.02500
H778        H  0.18884544  0.27798280  0.11762961     0.06000
H779        H  0.05973846  0.16995164  0.19419563     0.05000
H780        H  0.09263981  0.18376111  0.23025322    -0.00700
H781        H  0.09833657  0.18864543  0.17114091     0.00700
H782        H  0.10594428  0.32954118  0.21466240     0.04400
H783        H  0.07683035  0.31196164  0.17071321     0.06300
H784        H  0.11614914  0.32424602  0.15933083     0.07200
C785        C  0.69984570  0.96829497  0.40537472    -0.22400
C786        C  0.72630864  0.97936048  0.43225843     0.09600
C787        C  0.75629118  0.99517156  0.41271417     0.10000
C788        C  0.75891633  0.99953982  0.36691141    -0.17300
C789        C  0.73257457  0.99021296  0.34006215    -0.27800
C790        C  0.70258780  0.97481461  0.35999703     0.18300
C791        C  0.72243708  0.97697931  0.48102531     0.12300
C792        C  0.78573558  0.00863730  0.44002028    -0.12100
H793        H  0.78192430  0.01070217  0.35207414     0.12500
C794        C  0.67319114  0.96711929  0.33582540    -0.22900
H795        H  0.67687033  0.95617406  0.42044088     0.08200
C796        C  0.71176078  0.99466879  0.50463405     0.04500
C797        C  0.71214853  0.99481472  0.55100305    -0.20200
C798        C  0.72479319  0.97946837  0.57423004    -0.12400
C799        C  0.73629705  0.96255611  0.55046129     0.13200
C800        C  0.73306552  0.95984822  0.50441574    -0.22900
C801        C  0.70209705  0.01526095  0.48120201    -0.06000
H802        H  0.70469062  0.00893712  0.56923834     0.14800
C803        C  0.75476938  0.94970701  0.57158784    -0.16100
H804        H  0.74140474  0.94643694  0.48633053     0.09100
H805        H  0.66072099  0.97680861  0.35470392     0.06900
H806        H  0.65765519  0.94089586  0.33252208     0.08100
H807        H  0.67788308  0.97808122  0.30293031     0.07200
H808        H  0.78712819  0.98918737  0.45608544     0.02100
H809        H  0.78602045  0.02520038  0.46563600     0.02500
H810        H  0.80705622  0.02211051  0.41949698     0.06000
H811        H  0.69645690  0.02907538  0.50487118     0.05000
H812        H  0.68097658  0.00031081  0.46082656    -0.00700
H813        H  0.72143162  0.03248397  0.45972813     0.00700
H814        H  0.74246573  0.92347729  0.56675796     0.04400
H815        H  0.75886806  0.95534936  0.60722403     0.06300
H816        H  0.77811198  0.96053138  0.55572855     0.07200
C817        C  0.90740103  0.14293980  0.21681420    -0.22400
C818        C  0.88440074  0.14211909  0.18989529     0.09600
C819        C  0.89146939  0.16905845  0.16486365     0.10000
C820        C  0.92116322  0.19686314  0.16890187    -0.17300
C821        C  0.94426203  0.19858064  0.19766502    -0.27800
C822        C  0.93714305  0.17027287  0.22082793     0.18300
C823        C  0.85274022  0.11308273  0.19098710     0.12300
C824        C  0.86768112  0.16834902  0.13370395    -0.12100
H825        H  0.92562718  0.21706123  0.14951690     0.12500
C826        C  0.95940450  0.16718788  0.25126006    -0.22900
H827        H  0.90182588  0.12196386  0.23572060     0.08200
C828        C  0.84661450  0.08409194  0.17187109     0.04500
C829        C  0.81815495  0.05601519  0.18080124    -0.20200
C830        C  0.79556512  0.05583720  0.20937306    -0.12400
C831        C  0.80059325  0.08601715  0.22391853     0.13200
C832        C  0.82936863  0.11386114  0.21556194    -0.22900
C833        C  0.87026176  0.08279837  0.14216628    -0.06000
H834        H  0.81406243  0.03437703  0.16498636     0.14800
C835        C  0.77687654  0.09045589  0.24908092    -0.16100
H836        H  0.83391673  0.13641568  0.22931883     0.09100
H837        H  0.96267894  0.14764083  0.23899183     0.06900
H838        H  0.94919004  0.16111969  0.28493555     0.08100
H839        H  0.98284736  0.18857929  0.25451173     0.07200
H840        H  0.84670514  0.16410351  0.15235076     0.02100
H841        H  0.86072309  0.14893812  0.10891409     0.02500
H842        H  0.87705921  0.19114287  0.11576646     0.06000
H843        H  0.86157574  0.05838651  0.12896349     0.05000
H844        H  0.89215753  0.09034577  0.16069769    -0.00700
H845        H  0.87548595  0.09893405  0.11376806     0.00700
H846        H  0.78601982  0.10007671  0.28263025     0.04400
H847        H  0.75381278  0.06851779  0.25248344     0.06300
H848        H  0.77285010  0.10779373  0.23146476     0.07200
C849        C  0.01147853  0.70145619  0.39503561    -0.22400
C850        C  0.98686933  0.70302420  0.41478726     0.09600
C851        C  0.96386241  0.70310068  0.38797936     0.10000
C852        C  0.96751177  0.70443809  0.34190939    -0.17300
C853        C  0.99384058  0.70608892  0.32231493    -0.27800
C854        C  0.01492865  0.70237293  0.34901453     0.18300
C855        C  0.98843750  0.70944425  0.46289340     0.12300
C856        C  0.93613949  0.70295696  0.40808140    -0.12100
H857        H  0.95091791  0.70653505  0.32145742     0.12500
C858        C  0.04128455  0.69945398  0.33000810    -0.22900
H859        H  0.02878008  0.70074223  0.41572053     0.08200
C860        C  0.98050855  0.68563770  0.49460130     0.04500
C861        C  0.98505955  0.69413503  0.53965780    -0.20200
C862        C  0.99766814  0.72595855  0.55358526    -0.12400
C863        C  0.00445229  0.74958806  0.52145272     0.13200
C864        C  0.00002928  0.74094520  0.47666756    -0.22900
C865        C  0.96755817  0.65146097  0.48081164    -0.06000
H866        H  0.97978044  0.67599379  0.56401981     0.14800
C867        C  0.01578771  0.78401773  0.53232264    -0.16100
H868        H  0.00589365  0.75909352  0.45202469     0.09100
H869        H  0.03991566  0.67761292  0.34281228     0.06900
H870        H  0.06404536  0.72050579  0.33990809     0.08100
H871        H  0.04010769  0.69724653  0.29351325     0.07200
H872        H  0.94407931  0.72455720  0.42898164     0.02100
H873        H  0.92277313  0.68144595  0.42872597     0.02500
H874        H  0.92016902  0.70264190  0.38237596     0.06000
H875        H  0.96219763  0.63576320  0.50978993     0.05000
H876        H  0.98481184  0.64947516  0.45989666    -0.00700
H877        H  0.94565521  0.64284850  0.46171553     0.00700
H878        H  0.03949476  0.79941719  0.51829065     0.04400
H879        H  0.01672000  0.78920584  0.56804102     0.06300
H880        H  0.99968859  0.79068006  0.51739483     0.07200
C881        C  0.12101710  0.80917886  0.21138977    -0.22400
C882        C  0.12468224  0.83932482  0.20807446     0.09600
C883        C  0.09820358  0.84179877  0.20085579     0.10000
C884        C  0.06831968  0.81411110  0.20019735    -0.17300
C885        C  0.06381284  0.78349916  0.20741768    -0.27800
C886        C  0.09126088  0.78128802  0.21108617     0.18300
C887        C  0.15558378  0.86786436  0.21904469     0.12300
C888        C  0.10143543  0.87396349  0.19597995    -0.12100
H889        H  0.04879177  0.81739348  0.19620095     0.12500
C890        C  0.09018243  0.75005195  0.21616309    -0.22900
H891        H  0.14169032  0.80764997  0.21645773     0.08200
C892        C  0.16455609  0.87633075  0.26336168     0.04500
C893        C  0.19274334  0.90437509  0.27337694    -0.20200
C894        C  0.21299045  0.92501465  0.24033410    -0.12400
C895        C  0.20395280  0.91558228  0.19524994     0.13200
C896        C  0.17543208  0.88726938  0.18553873    -0.22900
C897        C  0.14369579  0.85614088  0.30051185    -0.06000
H898        H  0.19752419  0.90996495  0.30782018     0.14800
C899        C  0.22356145  0.93489947  0.15652482    -0.16100
H900        H  0.16827595  0.88034480  0.15150228     0.09100
H901        H  0.07638521  0.73700689  0.24537404     0.06900
H902        H  0.11387243  0.75369543  0.22080517     0.08100
H903        H  0.08051628  0.73510942  0.18607599     0.07200
H904        H  0.11634409  0.88629407  0.16697853     0.02100
H905        H  0.11234376  0.88865093  0.22613505     0.02500
H906        H  0.07846251  0.87197048  0.19102653     0.06000
H907        H  0.15371916  0.86640055  0.33348614     0.05000
H908        H  0.14041096  0.83195796  0.29854043    -0.00700
H909        H  0.12058789  0.85420210  0.29808761     0.00700
H910        H  0.24599003  0.93546956  0.15559753     0.04400
H911        H  0.22797200  0.95946636  0.15771566     0.06300
H912        H  0.21176200  0.92431769  0.12451518     0.07200
C913        C  0.69169317  0.70895812  0.43341020    -0.22400
C914        C  0.71668954  0.72874134  0.46162109     0.09600
C915        C  0.74665354  0.74901950  0.44362238     0.10000
C916        C  0.75073816  0.74945857  0.39783404    -0.17300
C917        C  0.72620756  0.72861973  0.36961050    -0.27800
C918        C  0.69618298  0.70829328  0.38753121     0.18300
C919        C  0.71283316  0.72386730  0.50994066     0.12300
C920        C  0.77495410  0.76822965  0.47275170    -0.12100
H921        H  0.77379630  0.76490383  0.38409603     0.12500
C922        C  0.66949868  0.68428321  0.35915219    -0.22900
H923        H  0.66903280  0.69273528  0.44768132     0.08200
C924        C  0.71364759  0.74694399  0.53920661     0.04500
C925        C  0.71863744  0.74511774  0.58447078    -0.20200
C926        C  0.72223148  0.72042835  0.60067064    -0.12400
C927        C  0.71722184  0.69520943  0.57207392     0.13200
C928        C  0.71284385  0.69739315  0.52689480    -0.22900
C929        C  0.70945625  0.77340891  0.52264680    -0.06000
H930        H  0.72141701  0.76388309  0.60678413     0.14800
C931        C  0.71662556  0.66607195  0.58893631    -0.16100
H932        H  0.71123799  0.67926457  0.50429520     0.09100
H933        H  0.66306616  0.69657150  0.33466865     0.06900
H934        H  0.64835930  0.66887237  0.37914862     0.08100
H935        H  0.67629241  0.66869382  0.34168872     0.07200
H936        H  0.77787377  0.75207515  0.49500152     0.02100
H937        H  0.77238053  0.78571480  0.49299743     0.02500
H938        H  0.79671530  0.78165200  0.45308686     0.06000
H939        H  0.71053772  0.78924079  0.55004830     0.05000
H940        H  0.68627983  0.76300106  0.50639547    -0.00700
H941        H  0.72781007  0.78820591  0.49835679     0.00700
H942        H  0.70986499  0.64769253  0.56257801     0.04400
H943        H  0.69937092  0.65541858  0.61615148     0.06300
H944        H  0.73999220  0.67231580  0.60102769     0.07200
C945        C  0.74882981  0.83448925  0.21247831    -0.22400
C946        C  0.74349973  0.84796649  0.25014796     0.09600
C947        C  0.73909859  0.83309201  0.29140501     0.10000
C948        C  0.74065932  0.80530910  0.29414610    -0.17300
C949        C  0.74668154  0.79215311  0.25664498    -0.27800
C950        C  0.75046793  0.80672738  0.21519389     0.18300
C951        C  0.74337644  0.87808982  0.24568787     0.12300
C952        C  0.73252565  0.84640949  0.33239088    -0.12100
H953        H  0.73732524  0.79385041  0.32579581     0.12500
C954        C  0.75525258  0.79257068  0.17362197    -0.22900
H955        H  0.75190540  0.84590570  0.18086099     0.08200
C956        C  0.77080098  0.90795107  0.25222449     0.04500
C957        C  0.76975763  0.93587833  0.24759894    -0.20200
C958        C  0.74220853  0.93495621  0.23475435    -0.12400
C959        C  0.71493238  0.90477050  0.22667343     0.13200
C960        C  0.71575943  0.87681393  0.23324092    -0.22900
C961        C  0.80131447  0.91034720  0.26351312    -0.06000
H962        H  0.79069199  0.95862956  0.25444692     0.14800
C963        C  0.68500907  0.90081745  0.20896502    -0.16100
H964        H  0.69487725  0.85378306  0.22736048     0.09100
H965        H  0.77776127  0.79325503  0.17527825     0.06900
H966        H  0.75588502  0.80595104  0.14387672     0.08100
H967        H  0.73582707  0.76751773  0.16949194     0.07200
H968        H  0.71074003  0.84691406  0.32774271     0.02100
H969        H  0.75214013  0.87098747  0.33907810     0.02500
H970        H  0.72951257  0.83178021  0.36185057     0.06000
H971        H  0.82060575  0.93551220  0.26716220     0.05000
H972        H  0.80775880  0.89905176  0.23682327    -0.00700
H973        H  0.79913885  0.89806334  0.29504267     0.00700
H974        H  0.67773636  0.88541199  0.17891725     0.04400
H975        H  0.68752063  0.92358001  0.19904260     0.06300
H976        H  0.66632351  0.88945118  0.23422436     0.07200
C977        C  0.84222570  0.73587802  0.20590847    -0.22400
C978        C  0.85416270  0.72497987  0.23860897     0.09600
C979        C  0.83604391  0.71065505  0.27650547     0.10000
C980        C  0.80758997  0.70960392  0.28231641    -0.17300
C981        C  0.79665096  0.72336449  0.25179778    -0.27800
C982        C  0.81328639  0.73416561  0.21112168     0.18300
C983        C  0.88525956  0.72793099  0.23251983     0.12300
C984        C  0.84661962  0.69610371  0.31080638    -0.12100
H985        H  0.79386686  0.69728170  0.31088039     0.12500
C986        C  0.80134640  0.74346855  0.17185230    -0.22900
H987        H  0.85546039  0.74549975  0.17574747     0.08200
C988        C  0.88918894  0.70679449  0.20491109     0.04500
C989        C  0.91848761  0.70909661  0.20288422    -0.20200
C990        C  0.94411730  0.73226463  0.22744846    -0.12400
C991        C  0.94012228  0.75336688  0.25532313     0.13200
C992        C  0.91081396  0.75100472  0.25726510    -0.22900
C993        C  0.86225878  0.68135578  0.17838222    -0.06000
H994        H  0.92142939  0.69267726  0.18204313     0.14800
C995        C  0.96614637  0.77742728  0.28467697    -0.16100
H996        H  0.90756888  0.76685444  0.27891892     0.09100
H997        H  0.80095278  0.72951727  0.14241406     0.06900
H998        H  0.81714999  0.76920060  0.16508603     0.08100
H999        H  0.77726609  0.73857226  0.17598456     0.07200
H1000       H  0.86913139  0.71467586  0.32554405     0.02100
H1001       H  0.84972710  0.67727425  0.29524456     0.02500
H1002       H  0.82939611  0.68512932  0.33800354     0.06000
H1003       H  0.86908659  0.66642180  0.15919544     0.05000
H1004       H  0.85390534  0.69251586  0.15474341    -0.00700
H1005       H  0.84284105  0.66557332  0.20083029     0.00700
H1006       H  0.95821333  0.79029287  0.30646306     0.04400
H1007       H  0.98570527  0.79548026  0.26444869     0.06300
H1008       H  0.97473533  0.76528653  0.30607689     0.07200
loop_ 
_geom_bond_atom_site_label_1 
_geom_bond_atom_site_label_2 
_geom_bond_distance 
_geom_bond_site_symmetry_2 
_ccdc_geom_bond_type 
N1            N2   1.324       .  A
N1            C5   1.350       .  A
N1           Cu9   2.101       .  S
N2            C3   1.347       .  A
N2           Cu8   2.078       .  S
C3            C4   1.381       .  A
C3            H6   1.082       .  S
C4            C5   1.385       .  A
C4          C195   1.478       .  S
C5            H7   1.082       .  S
Cu8          N11   2.077       .  S
Cu9          N19   2.101       .  S
Cu10         N12   2.071       .  S
Cu10         N18   2.072       .  S
N11          N12   1.322       .  A
N11          C15   1.346       .  A
N12          C13   1.344       .  A
C13          C14   1.384       .  A
C13          H16   1.082       .  S
C14          C15   1.385       .  A
C14          C86   1.474   1_554  S
C15          H17   1.082       .  S
N18          N19   1.323       .  A
N18          C22   1.346       .  A
N19          C20   1.349       .  A
C20          C21   1.387       .  A
C20          H23   1.082       .  S
C21          C22   1.381       .  A
C21          C45   1.473       .  S
C22          H24   1.082       .  S
N25          N26   1.324       .  A
N25          C29   1.349       .  A
N25         Cu33   2.102       .  S
N26          C27   1.345       .  A
N26         Cu32   2.062       .  S
C27          C28   1.377       .  A
C27          H30   1.082       .  S
C28          C29   1.386       .  A
C28         C243   1.473       .  S
C29          H31   1.082       .  S
Cu32         N35   2.062       .  S
Cu33         N43   2.103       .  S
Cu34         N36   2.072       .  S
Cu34         N42   2.072       .  S
N35          N36   1.321       .  A
N35          C39   1.343       .  A
N36          C37   1.345       .  A
C37          C38   1.384       .  A
C37          H40   1.082       .  S
C38          C39   1.382       .  A
C38          C62   1.471   1_554  S
C39          H41   1.082       .  S
N42          N43   1.324       .  A
N42          C46   1.346       .  A
N43          C44   1.350       .  A
C44          C45   1.388       .  A
C44          H47   1.082       .  S
C45          C46   1.381       .  A
C46          H48   1.082       .  S
N49          N50   1.323       .  A
N49          C53   1.348       .  A
N49         Cu57   2.086       .  S
N50          C51   1.344       .  A
N50         Cu56   2.071       .  S
C51          C52   1.379       .  A
C51          H54   1.082       .  S
C52          C53   1.383       .  A
C52         C320   1.470       .  S
C53          H55   1.082       .  S
Cu56         N59   2.072       .  S
Cu57         N67   2.086       .  S
Cu58         N60   2.068       .  S
Cu58         N66   2.067       .  S
N59          N60   1.321       .  A
N59          C63   1.344       .  A
N60          C61   1.345       .  A
C61          C62   1.383       .  A
C61          H64   1.082       .  S
C62          C63   1.384       .  A
C63          H65   1.082       .  S
N66          N67   1.322       .  A
N66          C70   1.343       .  A
N67          C68   1.348       .  A
C68          C69   1.385       .  A
C68          H71   1.082       .  S
C69          C70   1.380       .  A
C69          C93   1.466       .  S
C70          H72   1.082       .  S
N73          N74   1.324       .  A
N73          C77   1.346       .  A
N73         Cu81   2.079       .  S
N74          C75   1.343       .  A
N74         Cu80   2.071       .  S
C75          C76   1.378       .  A
C75          H78   1.081       .  S
C76          C77   1.380       .  A
C76         C272   1.466       .  S
C77          H79   1.082       .  S
Cu80         N83   2.071       .  S
Cu81         N91   2.079       .  S
Cu82         N84   2.072       .  S
Cu82         N90   2.072       .  S
N83          N84   1.321       .  A
N83          C87   1.345       .  A
N84          C85   1.344       .  A
C85          C86   1.385       .  A
C85          H88   1.082       .  S
C86          C87   1.385       .  A
C87          H89   1.082       .  S
N90          N91   1.322       .  A
N90          C94   1.343       .  A
N91          C92   1.348       .  A
C92          C93   1.384       .  A
C92          H95   1.082       .  S
C93          C94   1.380       .  A
C94          H96   1.082       .  S
N97          N98   1.324       .  A
N97         C101   1.349       .  A
N97        Cu105   2.094       .  S
N98          C99   1.344       .  A
N98        Cu104   2.076       .  S
C99         C100   1.380       .  A
C99         H102   1.082       .  S
C100        C101   1.385       .  A
C100        C224   1.475       .  S
C101        H103   1.082       .  S
Cu104       N107   2.075       .  S
Cu105       N115   2.093       .  S
Cu106       N108   2.071       .  S
Cu106       N114   2.071       .  S
N107        N108   1.321       .  A
N107        C111   1.346       .  A
N108        C109   1.344       .  A
C109        C110   1.384   1_554  A
C109        H112   1.082   1_554  S
C110        C111   1.386   1_556  A
C110        C182   1.475       .  S
C111        H113   1.082   1_554  S
N114        N115   1.323       .  A
N114        C118   1.344       .  A
N115        C116   1.349       .  A
C116        C117   1.386       .  A
C116        H119   1.082   1_565  S
C117        C118   1.381       .  A
C117        C141   1.469       .  S
C118        H120   1.082       .  S
N121        N122   1.324       .  A
N121        C125   1.348   1_545  A
N121       Cu129   2.095       .  S
N122        C123   1.345       .  A
N122       Cu128   2.071       .  S
C123        C124   1.379       .  A
C123        H126   1.082       .  S
C124        C125   1.385   1_545  A
C124        C260   1.472   1_545  S
C125        H127   1.082       .  S
Cu128       N131   2.070       .  S
Cu129       N139   2.095       .  S
Cu130       N132   2.066       .  S
Cu130       N138   2.065       .  S
N131        N132   1.321       .  A
N131        C135   1.345       .  A
N132        C133   1.344       .  A
C133        C134   1.383       .  A
C133        H136   1.082       .  S
C134        C135   1.384       .  A
C134        C158   1.472   1_554  S
C135        H137   1.082       .  S
N138        N139   1.323       .  A
N138        C142   1.343       .  A
N139        C140   1.349   1_545  A
C140        C141   1.387       .  A
C140        H143   1.082       .  S
C141        C142   1.380   1_565  A
C142        H144   1.082       .  S
N145        N146   1.324       .  A
N145        C149   1.348       .  A
N145       Cu153   2.091       .  S
N146        C147   1.345       .  A
N146       Cu152   2.067       .  S
C147        C148   1.377       .  A
C147        H150   1.082       .  S
C148        C149   1.384       .  A
C148        C327   1.470       .  S
C149        H151   1.082   1_545  S
Cu152       N155   2.066       .  S
Cu153       N163   2.091       .  S
Cu154       N156   2.069       .  S
Cu154       N162   2.068       .  S
N155        N156   1.320       .  A
N155        C159   1.344       .  A
N156        C157   1.345       .  A
C157        C158   1.385       .  A
C157        H160   1.082       .  S
C158        C159   1.383       .  A
C159        H161   1.082       .  S
N162        N163   1.323       .  A
N162        C166   1.342       .  A
N163        C164   1.349       .  A
C164        C165   1.386       .  A
C164        H167   1.082   1_545  S
C165        C166   1.379       .  A
C165        C189   1.466   1_545  S
C166        H168   1.082       .  S
N169        N170   1.324       .  A
N169        C173   1.349       .  A
N169       Cu177   2.089       .  S
N170        C171   1.346       .  A
N170       Cu176   2.080       .  S
C171        C172   1.381       .  A
C171        H174   1.082       .  S
C172        C173   1.383       .  A
C172        C291   1.474       .  S
C173        H175   1.082   1_565  S
Cu176       N179   2.078       .  S
Cu177       N187   2.089       .  S
Cu178       N180   2.070       .  S
Cu178       N186   2.070       .  S
N179        N180   1.321       .  A
N179        C183   1.346       .  A
N180        C181   1.345       .  A
C181        C182   1.384       .  A
C181        H184   1.082       .  S
C182        C183   1.385       .  A
C183        H185   1.082       .  S
N186        N187   1.323       .  A
N186        C190   1.343       .  A
N187        C188   1.348       .  A
C188        C189   1.385       .  A
C188        H191   1.082   1_565  S
C189        C190   1.380       .  A
C190        H192   1.082       .  S
C193        C194   1.540       .  S
C193        C199   1.545       .  S
C193        C197   1.548       .  S
C193        C981   1.552       .  S
C194        H201   1.086       .  S
C194        C195   1.367       .  D
C195        C196   1.538       .  S
C196        C200   1.536       .  S
C196        C198   1.534       .  S
C196        H202   1.109       .  S
C197        H203   1.085       .  S
C197        C198   1.369       .  D
C198        C949   1.487       .  S
C199        H204   1.083       .  S
C199        C200   1.365       .  D
C200        C917   1.487       .  S
C205        C206   1.539       .  S
C205        C211   1.539       .  S
C205        C209   1.556       .  S
C205        C885   1.553       .  S
C206        H213   1.084       .  S
C206        C207   1.364   1_455  D
C207        C412   1.473       .  S
C207        C208   1.537       .  S
C208        C212   1.533   1_655  S
C208        C210   1.539       .  S
C208        H214   1.111       .  S
C209        H215   1.080       .  S
C209        C210   1.370   1_455  D
C210        C990   1.493       .  S
C211        H216   1.087       .  S
C211        C212   1.365       .  D
C212        C853   1.484   1_455  S
C217        C218   1.538       .  S
C217        C223   1.531       .  S
C217        C221   1.553   1_545  S
C217        C830   1.545       .  S
C218        H225   1.086       .  S
C218        C219   1.367   1_545  D
C219        C789   1.494       .  S
C219        C220   1.540       .  S
C220        C224   1.546       .  S
C220        C222   1.540       .  S
C220        H226   1.108       .  S
C221        H227   1.081       .  S
C221        C222   1.371       .  D
C222        C958   1.500       .  S
C223        H228   1.086       .  S
C223        C224   1.362   1_545  D
C229        C230   1.547       .  S
C229        C235   1.537       .  S
C229        C233   1.537   1_655  S
C229        C821   1.542       .  S
C230        H237   1.082       .  S
C230        C231   1.368   1_655  D
C231        C388   1.467       .  S
C231        C232   1.537       .  S
C232        C236   1.526       .  S
C232        C234   1.549       .  S
C232        H238   1.106       .  S
C233        H239   1.084       .  S
C233        C234   1.373       .  D
C234        C766   1.509       .  S
C235        H240   1.087       .  S
C235        C236   1.359   1_655  D
C236        C725   1.477       .  S
C241        C242   1.549       .  S
C241        C247   1.537       .  S
C241        C245   1.537       .  S
C241        C757   1.540       .  S
C242        H249   1.083       .  S
C242        C243   1.367       .  D
C243        C244   1.538       .  S
C244        C248   1.540       .  S
C244        C246   1.537       .  S
C244        H250   1.110       .  S
C245        H251   1.087       .  S
C245        C246   1.364       .  D
C246        C693   1.486       .  S
C247        H252   1.086       .  S
C247        C248   1.366       .  D
C248        C661   1.488       .  S
C253        C254   1.553       .  S
C253        C259   1.536       .  S
C253        C257   1.540       .  S
C253        C894   1.554       .  S
C254        H261   1.079       .  S
C254        C255   1.363       .  D
C255        C638   1.484   1_565  S
C255        C256   1.529   1_565  S
C256        C260   1.541   1_545  S
C256        C258   1.545       .  S
C256        H262   1.110       .  S
C257        H263   1.079       .  S
C257        C258   1.369   1_565  D
C258        C702   1.506       .  S
C259        H264   1.084       .  S
C259        C260   1.365       .  D
C265        C266   1.536       .  S
C265        C271   1.536       .  S
C265        C269   1.554       .  S
C265        C597   1.541       .  S
C266        H273   1.086       .  S
C266        C267   1.360       .  D
C267        C926   1.480       .  S
C267        C268   1.531       .  S
C268        C272   1.535       .  S
C268        C270   1.537       .  S
C268        H274   1.109       .  S
C269        H275   1.081       .  S
C269        C270   1.373       .  D
C270        C565   1.486       .  S
C271        H276   1.086       .  S
C271        C272   1.361       .  D
C277        C278   1.539       .  S
C277        C283   1.537       .  S
C277        C281   1.554       .  S
C277        C533   1.546       .  S
C278        H285   1.086       .  S
C278        C279   1.366       .  D
C279        C862   1.488   1_455  S
C279        C280   1.540   1_455  S
C280        C284   1.537   1_655  S
C280        C282   1.532       .  S
C280        H286   1.111       .  S
C281        H287   1.080       .  S
C281        C282   1.364   1_455  D
C282        C606   1.482       .  S
C283        H288   1.086       .  S
C283        C284   1.364       .  D
C284        C364   1.471   1_455  S
C289        C290   1.540       .  S
C289        C295   1.530       .  S
C289        C293   1.552   1_545  S
C289        C501   1.544       .  S
C290        H297   1.085       .  S
C290        C291   1.365   1_545  D
C291        C292   1.537       .  S
C292        C296   1.541       .  S
C292        C294   1.538       .  S
C292        H298   1.110       .  S
C293        H299   1.079       .  S
C293        C294   1.373       .  D
C294        C574   1.493       .  S
C295        H300   1.087       .  S
C295        C296   1.356   1_545  D
C296        C798   1.477       .  S
C301        C302   1.544       .  S
C301        C307   1.543       .  S
C301        C305   1.538   1_655  S
C301        C510   1.541       .  S
C302        H309   1.083       .  S
C302        C303   1.363   1_655  D
C303        C734   1.489       .  S
C303        C304   1.540       .  S
C304        C308   1.541       .  S
C304        C306   1.533       .  S
C304        H310   1.111       .  S
C305        H311   1.086   1_455  S
C305        C306   1.361       .  D
C306        C469   1.481       .  S
C307        H312   1.086       .  S
C307        C308   1.368   1_655  D
C308        C340   1.474       .  S
C313        C314   1.537       .  S
C313        C319   1.537       .  S
C313        C317   1.552       .  S
C313        C478   1.541       .  S
C314        H321   1.087       .  S
C314        C315   1.361       .  D
C315        C670   1.476       .  S
C315        C316   1.531       .  S
C316        C320   1.537       .  S
C316        C318   1.539       .  S
C316        H322   1.110       .  S
C317        H323   1.082       .  S
C317        C318   1.370       .  D
C318        C437   1.489       .  S
C319        H324   1.086       .  S
C319        C320   1.364       .  D
C325        C326   1.551       .  S
C325        C331   1.534       .  S
C325        C329   1.541       .  S
C325        C542   1.546       .  S
C326        H333   1.082       .  S
C326        C327   1.365   1_565  D
C327        C328   1.533       .  S
C328        C332   1.538       .  S
C328        C330   1.549       .  S
C328        H334   1.109       .  S
C329        H335   1.085       .  S
C329        C330   1.373   1_565  D
C330        C446   1.510       .  S
C331        H336   1.087       .  S
C331        C332   1.361   1_565  D
C332        C629   1.482       .  S
N337        N338   1.324       .  A
N337        C341   1.351       .  A
N337       Cu345   2.105       .  S
N338        C339   1.342       .  A
N338       Cu344   2.067       .  S
C339        C340   1.376       .  A
C339        H342   1.080       .  S
C340        C341   1.388       .  A
C341        H343   1.082   1_455  S
Cu344       N347   2.066       .  S
Cu345       N355   2.105       .  S
Cu346       N348   2.067       .  S
Cu346       N354   2.067       .  S
N347        N348   1.320       .  A
N347        C351   1.346       .  A
N348        C349   1.343       .  A
C349        C350   1.384       .  A
C349        H352   1.082       .  S
C350        C351   1.384       .  A
C350        C398   1.473       .  S
C351        H353   1.082       .  S
N354        N355   1.323       .  A
N354        C358   1.343       .  A
N355        C356   1.351       .  A
C356        C357   1.389       .  A
C356        H359   1.082   1_455  S
C357        C358   1.379       .  A
C357        C381   1.471   1_455  S
C358        H360   1.082       .  S
N361        N362   1.324       .  A
N361        C365   1.350       .  A
N361       Cu369   2.100       .  S
N362        C363   1.343       .  A
N362       Cu368   2.067       .  S
C363        C364   1.377       .  A
C363        H366   1.082       .  S
C364        C365   1.386       .  A
C365        H367   1.082   1_655  S
Cu368       N371   2.066       .  S
Cu369       N379   2.101       .  S
Cu370       N372   2.071       .  S
Cu370       N378   2.071       .  S
N371        N372   1.320       .  A
N371        C375   1.345       .  A
N372        C373   1.345       .  A
C373        C374   1.385       .  A
C373        H376   1.082       .  S
C374        C375   1.384       .  A
C374        C422   1.473       .  S
C375        H377   1.082       .  S
N378        N379   1.323       .  A
N378        C382   1.343       .  A
N379        C380   1.350   1_655  A
C380        C381   1.389   1_455  A
C380        H383   1.082       .  S
C381        C382   1.380       .  A
C382        H384   1.082       .  S
N385        N386   1.326       .  A
N385        C389   1.348       .  A
N385       Cu393   2.090       .  S
N386        C387   1.343       .  A
N386       Cu392   2.074       .  S
C387        C388   1.377       .  A
C387        H390   1.082       .  S
C388        C389   1.382       .  A
C389        H391   1.082       .  S
Cu392       N395   2.073       .  S
Cu393       N403   2.089       .  S
Cu394       N396   2.064       .  S
Cu394       N402   2.064       .  S
N395        N396   1.320       .  A
N395        C399   1.347   1_554  A
N396        C397   1.342   1_554  A
C397        C398   1.382       .  A
C397        H400   1.082       .  S
C398        C399   1.387       .  A
C399        H401   1.082       .  S
N402        N403   1.322       .  A
N402        C406   1.341       .  A
N403        C404   1.351       .  A
C404        C405   1.388       .  A
C404        H407   1.082   1_455  S
C405        C406   1.379       .  A
C405        C429   1.470   1_455  S
C406        H408   1.082       .  S
N409        N410   1.325       .  A
N409        C413   1.348       .  A
N409       Cu417   2.099       .  S
N410        C411   1.347       .  A
N410       Cu416   2.076       .  S
C411        C412   1.379       .  A
C411        H414   1.082       .  S
C412        C413   1.384       .  A
C413        H415   1.082   1_655  S
Cu416       N419   2.075       .  S
Cu417       N427   2.097       .  S
Cu418       N420   2.066       .  S
Cu418       N426   2.065       .  S
N419        N420   1.321       .  A
N419        C423   1.345   1_554  A
N420        C421   1.344   1_554  A
C421        C422   1.383       .  A
C421        H424   1.082       .  S
C422        C423   1.385       .  A
C423        H425   1.082       .  S
N426        N427   1.322       .  A
N426        C430   1.342       .  A
N427        C428   1.351       .  A
C428        C429   1.388       .  A
C428        H431   1.082   1_655  S
C429        C430   1.381       .  A
C430        H432   1.082       .  S
C433        C434   1.402       .  A
C433        C438   1.406       .  A
C433        H443   1.084       .  S
C434        C435   1.411       .  A
C434        C439   1.486       .  S
C435        C436   1.406       .  A
C435        C440   1.506       .  S
C436        C437   1.406       .  A
C436        H441   1.084       .  S
C437        C438   1.414       .  A
C438        C442   1.505       .  S
C439        C444   1.407       .  A
C439        C448   1.400       .  A
C440        H456   1.110       .  S
C440        H457   1.110       .  S
C440        H458   1.111       .  S
C442        H453   1.107       .  S
C442        H454   1.111       .  S
C442        H455   1.110       .  S
C444        C445   1.404       .  A
C444        C449   1.507       .  S
C445        C446   1.410       .  A
C445        H450   1.076       .  S
C446        C447   1.425       .  A
C447        C448   1.408       .  A
C447        C451   1.508       .  S
C448        H452   1.085       .  S
C449        H459   1.111       .  S
C449        H460   1.110       .  S
C449        H461   1.110       .  S
C451        H462   1.111       .  S
C451        H463   1.107       .  S
C451        H464   1.110       .  S
C465        C466   1.400       .  A
C465        C470   1.399       .  A
C465        H475   1.085       .  S
C466        C467   1.412       .  A
C466        C471   1.483       .  S
C467        C468   1.407       .  A
C467        C472   1.506       .  S
C468        C469   1.403       .  A
C468        H473   1.082       .  S
C469        C470   1.415       .  A
C470        C474   1.504       .  S
C471        C476   1.408       .  A
C471        C480   1.396       .  A
C472        H488   1.109       .  S
C472        H489   1.110       .  S
C472        H490   1.111       .  S
C474        H485   1.110       .  S
C474        H486   1.110       .  S
C474        H487   1.100       .  S
C476        C477   1.405       .  A
C476        C481   1.507       .  S
C477        C478   1.413       .  A
C477        H482   1.077       .  S
C478        C479   1.430       .  A
C479        C480   1.402       .  A
C479        C483   1.510       .  S
C480        H484   1.085       .  S
C481        H491   1.111       .  S
C481        H492   1.109       .  S
C481        H493   1.110       .  S
C483        H494   1.110       .  S
C483        H495   1.103       .  S
C483        H496   1.111       .  S
C497        C498   1.395       .  A
C497        C502   1.404       .  A
C497        H507   1.084       .  S
C498        C499   1.406       .  A
C498        C503   1.481       .  S
C499        C500   1.405       .  A
C499        C504   1.507       .  S
C500        C501   1.415       .  A
C500        H505   1.074       .  S
C501        C502   1.431       .  A
C502        C506   1.514       .  S
C503        C508   1.405       .  A
C503        C512   1.398       .  A
C504        H520   1.110       .  S
C504        H521   1.110       .  S
C504        H522   1.111       .  S
C506        H517   1.111       .  S
C506        H518   1.107       .  S
C506        H519   1.106       .  S
C508        C509   1.399       .  A
C508        C513   1.510       .  S
C509        C510   1.415       .  A
C509        H514   1.078       .  S
C510        C511   1.429       .  A
C511        C512   1.408       .  A
C511        C515   1.509       .  S
C512        H516   1.084       .  S
C513        H523   1.111       .  S
C513        H524   1.110       .  S
C513        H525   1.110       .  S
C515        H526   1.110       .  S
C515        H527   1.104       .  S
C515        H528   1.111       .  S
C529        C530   1.398       .  A
C529        C534   1.407       .  A
C529        H539   1.085       .  S
C530        C531   1.405       .  A
C530        C535   1.484       .  S
C531        C532   1.403       .  A
C531        C536   1.508       .  S
C532        C533   1.415       .  A
C532        H537   1.074       .  S
C533        C534   1.431       .  A
C534        C538   1.511       .  S
C535        C540   1.406       .  A
C535        C544   1.395       .  A
C536        H552   1.110       .  S
C536        H553   1.110       .  S
C536        H554   1.111       .  S
C538        H549   1.110       .  S
C538        H550   1.111       .  S
C538        H551   1.102       .  S
C540        C541   1.408       .  A
C540        C545   1.507       .  S
C541        C542   1.417       .  A
C541        H546   1.076       .  S
C542        C543   1.432       .  A
C543        C544   1.402       .  A
C543        C547   1.513       .  S
C544        H548   1.085       .  S
C545        H555   1.111       .  S
C545        H556   1.110       .  S
C545        H557   1.110       .  S
C547        H558   1.111       .  S
C547        H559   1.102       .  S
C547        H560   1.111       .  S
C561        C562   1.399       .  A
C561        C566   1.404       .  A
C561        H571   1.084       .  S
C562        C563   1.411       .  A
C562        C567   1.479       .  S
C563        C564   1.403       .  A
C563        C568   1.508       .  S
C564        C565   1.404       .  A
C564        H569   1.084       .  S
C565        C566   1.416       .  A
C566        C570   1.505       .  S
C567        C572   1.410       .  A
C567        C576   1.399       .  A
C568        H584   1.110       .  S
C568        H585   1.108       .  S
C568        H586   1.111       .  S
C570        H581   1.106       .  S
C570        H582   1.111       .  S
C570        H583   1.109       .  S
C572        C573   1.403       .  A
C572        C577   1.508       .  S
C573        C574   1.407       .  A
C573        H578   1.081       .  S
C574        C575   1.418       .  A
C575        C576   1.401       .  A
C575        C579   1.507       .  S
C576        H580   1.085       .  S
C577        H587   1.111       .  S
C577        H588   1.110       .  S
C577        H589   1.108       .  S
C579        H590   1.111       .  S
C579        H591   1.108       .  S
C579        H592   1.110       .  S
C593        C594   1.396       .  A
C593        C598   1.401       .  A
C593        H603   1.085       .  S
C594        C595   1.411       .  A
C594        C599   1.488       .  S
C595        C596   1.407       .  A
C595        C600   1.508       .  S
C596        C597   1.413       .  A
C596        H601   1.076       .  S
C597        C598   1.432       .  A
C598        C602   1.512       .  S
C599        C604   1.416       .  A
C599        C608   1.402       .  A
C600        H616   1.108       .  S
C600        H617   1.110       .  S
C600        H618   1.111       .  S
C602        H613   1.111       .  S
C602        H614   1.110       .  S
C602        H615   1.101       .  S
C604        C605   1.407       .  A
C604        C609   1.507       .  S
C605        C606   1.401       .  A
C605        H610   1.083       .  S
C606        C607   1.412       .  A
C607        C608   1.401       .  A
C607        C611   1.504       .  S
C608        H612   1.084       .  S
C609        H619   1.111       .  S
C609        H620   1.108       .  S
C609        H621   1.110       .  S
C611        H622   1.108       .  S
C611        H623   1.109       .  S
C611        H624   1.111       .  S
C625        C626   1.404   1_565  A
C625        C630   1.403       .  A
C625        H635   1.084       .  S
C626        C627   1.414       .  A
C626        C631   1.486       .  S
C627        C628   1.401       .  A
C627        C632   1.509       .  S
C628        C629   1.400       .  A
C628        H633   1.076       .  S
C629        C630   1.414   1_545  A
C630        C634   1.507       .  S
C631        C636   1.414       .  A
C631        C640   1.401       .  A
C632        H648   1.108       .  S
C632        H649   1.110       .  S
C632        H650   1.111       .  S
C634        H645   1.110       .  S
C634        H646   1.110       .  S
C634        H647   1.109       .  S
C636        C637   1.410       .  A
C636        C641   1.506       .  S
C637        C638   1.405       .  A
C637        H642   1.084       .  S
C638        C639   1.414       .  A
C639        C640   1.396       .  A
C639        C643   1.505       .  S
C640        H644   1.085       .  S
C641        H651   1.111       .  S
C641        H652   1.108       .  S
C641        H653   1.110       .  S
C643        H654   1.110   1_545  S
C643        H655   1.102   1_545  S
C643        H656   1.111       .  S
C657        C658   1.400       .  A
C657        C662   1.405       .  A
C657        H667   1.084       .  S
C658        C659   1.410       .  A
C658        C663   1.475       .  S
C659        C660   1.396       .  A
C659        C664   1.510       .  S
C660        C661   1.405       .  A
C660        H665   1.084       .  S
C661        C662   1.418       .  A
C662        C666   1.504       .  S
C663        C668   1.411       .  A
C663        C672   1.400       .  A
C664        H680   1.110       .  S
C664        H681   1.108       .  S
C664        H682   1.111       .  S
C666        H677   1.110       .  S
C666        H678   1.111       .  S
C666        H679   1.101       .  S
C668        C669   1.403       .  A
C668        C673   1.507       .  S
C669        C670   1.402       .  A
C669        H674   1.084       .  S
C670        C671   1.413       .  A
C671        C672   1.400       .  A
C671        C675   1.506       .  S
C672        H676   1.084       .  S
C673        H683   1.111       .  S
C673        H684   1.110       .  S
C673        H685   1.109       .  S
C675        H686   1.111       .  S
C675        H687   1.110       .  S
C675        H688   1.106       .  S
C689        C690   1.402       .  A
C689        C694   1.406       .  A
C689        H699   1.084       .  S
C690        C691   1.410       .  A
C690        C695   1.483       .  S
C691        C692   1.404       .  A
C691        C696   1.506       .  S
C692        C693   1.404       .  A
C692        H697   1.084       .  S
C693        C694   1.415       .  A
C694        C698   1.506       .  S
C695        C700   1.408       .  A
C695        C704   1.395       .  A
C696        H712   1.110       .  S
C696        H713   1.110       .  S
C696        H714   1.111       .  S
C698        H709   1.107       .  S
C698        H710   1.111       .  S
C698        H711   1.110       .  S
C700        C701   1.407       .  A
C700        C705   1.506       .  S
C701        C702   1.411       .  A
C701        H706   1.083       .  S
C702        C703   1.429       .  A
C703        C704   1.404       .  A
C703        C707   1.509       .  S
C704        H708   1.085       .  S
C705        H715   1.111       .  S
C705        H716   1.110       .  S
C705        H717   1.110       .  S
C707        H718   1.111       .  S
C707        H719   1.105       .  S
C707        H720   1.108       .  S
C721        C722   1.401       .  A
C721        C726   1.401   1_455  A
C721        H731   1.085   1_455  S
C722        C723   1.411       .  A
C722        C727   1.478       .  S
C723        C724   1.402       .  A
C723        C728   1.506       .  S
C724        C725   1.402       .  A
C724        H729   1.084       .  S
C725        C726   1.414   1_455  A
C726        C730   1.507       .  S
C727        C732   1.409       .  A
C727        C736   1.396       .  A
C728        H744   1.109       .  S
C728        H745   1.110       .  S
C728        H746   1.111       .  S
C730        H741   1.110       .  S
C730        H742   1.110       .  S
C730        H743   1.108       .  S
C732        C733   1.407       .  A
C732        C737   1.505       .  S
C733        C734   1.407       .  A
C733        H738   1.084       .  S
C734        C735   1.423       .  A
C735        C736   1.396       .  A
C735        C739   1.509   1_455  S
C736        H740   1.085       .  S
C737        H747   1.111       .  S
C737        H748   1.110       .  S
C737        H749   1.110       .  S
C739        H750   1.099       .  S
C739        H751   1.111       .  S
C739        H752   1.111   1_655  S
C753        C754   1.398       .  A
C753        C758   1.401       .  A
C753        H763   1.085       .  S
C754        C755   1.410       .  A
C754        C759   1.488       .  S
C755        C756   1.407       .  A
C755        C760   1.508       .  S
C756        C757   1.413       .  A
C756        H761   1.078       .  S
C757        C758   1.429       .  A
C758        C762   1.512       .  S
C759        C764   1.410       .  A
C759        C768   1.401       .  A
C760        H776   1.108       .  S
C760        H777   1.111       .  S
C760        H778   1.111       .  S
C762        H773   1.111       .  S
C762        H774   1.110       .  S
C762        H775   1.103       .  S
C764        C765   1.402       .  A
C764        C769   1.509       .  S
C765        C766   1.413       .  A
C765        H770   1.080       .  S
C766        C767   1.423       .  A
C767        C768   1.406       .  A
C767        C771   1.505       .  S
C768        H772   1.084       .  S
C769        H779   1.111       .  S
C769        H780   1.108       .  S
C769        H781   1.111       .  S
C771        H782   1.110       .  S
C771        H783   1.106       .  S
C771        H784   1.111       .  S
C785        C786   1.401       .  A
C785        C790   1.404       .  A
C785        H795   1.084       .  S
C786        C787   1.413       .  A
C786        C791   1.486       .  S
C787        C788   1.401       .  A
C787        C792   1.510   1_565  S
C788        C789   1.408       .  A
C788        H793   1.083   1_565  S
C789        C790   1.419       .  A
C790        C794   1.505       .  S
C791        C796   1.415       .  A
C791        C800   1.401       .  A
C792        H808   1.108   1_545  S
C792        H809   1.110       .  S
C792        H810   1.111       .  S
C794        H805   1.111       .  S
C794        H806   1.110       .  S
C794        H807   1.102       .  S
C796        C797   1.404       .  A
C796        C801   1.508   1_565  S
C797        C798   1.401       .  A
C797        H802   1.085   1_565  S
C798        C799   1.416       .  A
C799        C800   1.401       .  A
C799        C803   1.506       .  S
C800        H804   1.084       .  S
C801        H811   1.111       .  S
C801        H812   1.108       .  S
C801        H813   1.111       .  S
C803        H814   1.110       .  S
C803        H815   1.104       .  S
C803        H816   1.111       .  S
C817        C818   1.395       .  A
C817        C822   1.400       .  A
C817        H827   1.085       .  S
C818        C819   1.407       .  A
C818        C823   1.485       .  S
C819        C820   1.409       .  A
C819        C824   1.506       .  S
C820        C821   1.415       .  A
C820        H825   1.076       .  S
C821        C822   1.433       .  A
C822        C826   1.514       .  S
C823        C828   1.407       .  A
C823        C832   1.398       .  A
C824        H840   1.110       .  S
C824        H841   1.110       .  S
C824        H842   1.111       .  S
C826        H837   1.111       .  S
C826        H838   1.111       .  S
C826        H839   1.101       .  S
C828        C829   1.405       .  A
C828        C833   1.507       .  S
C829        C830   1.414       .  A
C829        H834   1.077       .  S
C830        C831   1.430       .  A
C831        C832   1.405       .  A
C831        C835   1.511       .  S
C832        H836   1.085       .  S
C833        H843   1.111       .  S
C833        H844   1.109       .  S
C833        H845   1.110       .  S
C835        H846   1.111       .  S
C835        H847   1.103       .  S
C835        H848   1.111       .  S
C849        C850   1.401   1_455  A
C849        C854   1.401       .  A
C849        H859   1.085       .  S
C850        C851   1.411       .  A
C850        C855   1.480       .  S
C851        C852   1.404       .  A
C851        C856   1.506       .  S
C852        C853   1.404       .  A
C852        H857   1.084       .  S
C853        C854   1.416   1_655  A
C854        C858   1.506       .  S
C855        C860   1.409       .  A
C855        C864   1.399   1_655  A
C856        H872   1.110       .  S
C856        H873   1.110       .  S
C856        H874   1.111       .  S
C858        H869   1.111       .  S
C858        H870   1.110       .  S
C858        H871   1.108       .  S
C860        C861   1.406       .  A
C860        C865   1.505       .  S
C861        C862   1.407       .  A
C861        H866   1.084       .  S
C862        C863   1.421   1_655  A
C863        C864   1.400       .  A
C863        C867   1.509       .  S
C864        H868   1.085       .  S
C865        H875   1.111       .  S
C865        H876   1.110       .  S
C865        H877   1.110       .  S
C867        H878   1.110       .  S
C867        H879   1.104       .  S
C867        H880   1.111   1_455  S
C881        C882   1.396       .  A
C881        C886   1.408       .  A
C881        H891   1.084       .  S
C882        C883   1.406       .  A
C882        C887   1.489       .  S
C883        C884   1.407       .  A
C883        C888   1.508       .  S
C884        C885   1.416       .  A
C884        H889   1.074       .  S
C885        C886   1.434       .  A
C886        C890   1.512       .  S
C887        C892   1.405       .  A
C887        C896   1.399       .  A
C888        H904   1.110       .  S
C888        H905   1.110       .  S
C888        H906   1.111       .  S
C890        H901   1.104       .  S
C890        H902   1.111       .  S
C890        H903   1.106       .  S
C892        C893   1.400       .  A
C892        C897   1.510       .  S
C893        C894   1.416       .  A
C893        H898   1.071       .  S
C894        C895   1.434       .  A
C895        C896   1.413       .  A
C895        C899   1.513       .  S
C896        H900   1.084       .  S
C897        H907   1.111       .  S
C897        H908   1.110       .  S
C897        H909   1.110       .  S
C899        H910   1.106       .  S
C899        H911   1.106       .  S
C899        H912   1.111       .  S
C913        C914   1.404       .  A
C913        C918   1.408       .  A
C913        H923   1.084       .  S
C914        C915   1.412       .  A
C914        C919   1.480       .  S
C915        C916   1.399       .  A
C915        C920   1.511       .  S
C916        C917   1.405       .  A
C916        H921   1.084       .  S
C917        C918   1.414       .  A
C918        C922   1.506       .  S
C919        C924   1.412       .  A
C919        C928   1.400       .  A
C920        H936   1.110       .  S
C920        H937   1.107       .  S
C920        H938   1.111       .  S
C922        H933   1.107       .  S
C922        H934   1.111       .  S
C922        H935   1.110       .  S
C924        C925   1.406       .  A
C924        C929   1.507       .  S
C925        C926   1.405       .  A
C925        H930   1.084       .  S
C926        C927   1.413       .  A
C927        C928   1.400       .  A
C927        C931   1.507       .  S
C928        H932   1.084       .  S
C929        H939   1.111       .  S
C929        H940   1.110       .  S
C929        H941   1.108       .  S
C931        H942   1.111       .  S
C931        H943   1.110       .  S
C931        H944   1.106       .  S
C945        C946   1.403       .  A
C945        C950   1.407       .  A
C945        H955   1.084       .  S
C946        C947   1.412       .  A
C946        C951   1.486       .  S
C947        C948   1.406       .  A
C947        C952   1.507       .  S
C948        C949   1.405       .  A
C948        H953   1.084       .  S
C949        C950   1.414       .  A
C950        C954   1.506       .  S
C951        C956   1.409       .  A
C951        C960   1.401       .  A
C952        H968   1.110       .  S
C952        H969   1.109       .  S
C952        H970   1.111       .  S
C954        H965   1.108       .  S
C954        H966   1.111       .  S
C954        H967   1.110       .  S
C956        C957   1.404       .  A
C956        C961   1.507       .  S
C957        C958   1.409       .  A
C957        H962   1.083       .  S
C958        C959   1.421       .  A
C959        C960   1.407       .  A
C959        C963   1.505       .  S
C960        H964   1.085       .  S
C961        H971   1.111       .  S
C961        H972   1.110       .  S
C961        H973   1.109       .  S
C963        H974   1.111       .  S
C963        H975   1.101       .  S
C963        H976   1.110       .  S
C977        C978   1.402       .  A
C977        C982   1.412       .  A
C977        H987   1.084       .  S
C978        C979   1.408       .  A
C978        C983   1.494       .  S
C979        C980   1.405       .  A
C979        C984   1.508       .  S
C980        C981   1.416       .  A
C980        H985   1.078       .  S
C981        C982   1.428       .  A
C982        C986   1.508       .  S
C983        C988   1.413       .  A
C983        C992   1.403       .  A
C984       H1000   1.110       .  S
C984       H1001   1.110       .  S
C984       H1002   1.111       .  S
C986        H997   1.111       .  S
C986        H998   1.110       .  S
C986        H999   1.105       .  S
C988        C989   1.409       .  A
C988        C993   1.505       .  S
C989        C990   1.404       .  A
C989        H994   1.084       .  S
C990        C991   1.418       .  A
C991        C992   1.408       .  A
C991        C995   1.508       .  S
C992        H996   1.084       .  S
C993       H1003   1.111       .  S
C993       H1004   1.110       .  S
C993       H1005   1.110       .  S
C995       H1006   1.111       .  S
C995       H1007   1.108       .  S
C995       H1008   1.110       .  S
