geometry optimzed in LAMMPS
_audit_creation_date              2020-12-01 
_audit_creation_method            'lammps2cif' 
_symmetry_space_group_name_H-M    'P1' 
_symmetry_Int_Tables_number       1 
_symmetry_cell_setting            triclinic 
loop_ 
_symmetry_equiv_pos_as_xyz 
  x,y,z 
_cell_length_a                    46.53588779 
_cell_length_b                    45.956491935405595 
_cell_length_c                    126.30142893136139 
_cell_angle_alpha                 89.52951236337604 
_cell_angle_beta                  90.13346262378587 
_cell_angle_gamma                 120.24790181993714 
loop_ 
_atom_site_label 
_atom_site_type_symbol 
_atom_site_fract_x 
_atom_site_fract_y 
_atom_site_fract_z 
_atom_site_charge 
In1        In  0.64588026  0.65764612  0.60756159     1.36900
C2          C  0.59173497  0.60464462  0.61529930     0.77400
O3          O  0.62419047  0.63484815  0.59200502    -0.61000
O4          O  0.67565344  0.65316918  0.59403239    -0.51900
C5          C  0.64246490  0.71269361  0.60406976     0.70100
O6          O  0.61885703  0.68594965  0.60798834    -0.46800
C7          C  0.68599485  0.66982905  0.62424002     0.74800
O8          O  0.59462971  0.63341268  0.61472055    -0.58600
O9          O  0.67692770  0.68990267  0.62102365    -0.48700
O10         O  0.61689053  0.60354271  0.61223109    -0.55100
C11         C  0.65047470  0.63807623  0.58811081     0.85000
O12         O  0.66803093  0.71108786  0.60165335    -0.57000
O13         O  0.67703056  0.64472201  0.61836239    -0.60200
In14       In  0.31484291  0.34685290  0.60984131     1.36900
C15         C  0.37155661  0.39863908  0.61622116     0.77400
O16         O  0.31456309  0.30868503  0.62140491    -0.61000
O17         O  0.29216829  0.33728031  0.62582484    -0.51900
C18         C  0.25842238  0.34461064  0.60498464     0.70100
O19         O  0.28477314  0.37165567  0.60723585    -0.46800
C20         C  0.33306478  0.33664636  0.59093148     0.74800
O21         O  0.34663321  0.40145293  0.61390881    -0.58600
O22         O  0.32009370  0.31336463  0.59783154    -0.48700
O23         O  0.36715909  0.36940559  0.61526132    -0.55100
C24         C  0.30046273  0.31614853  0.62856520     0.85000
O25         O  0.26124152  0.31861750  0.60497516    -0.57000
O26         O  0.33567082  0.36411635  0.59372836    -0.60200
In27       In  0.97953001  0.32871401  0.60670041     1.36900
C28         C  0.99443542  0.39259015  0.60692569     0.77400
O29         O  0.93154196  0.31697092  0.59900461    -0.61000
O30         O  0.95868673  0.29659841  0.59205122    -0.51900
C31         C  0.03720441  0.33221941  0.60251600     0.70100
O32         O  0.03463405  0.35782562  0.60424725    -0.46800
C33         C  0.95853796  0.30012129  0.62581845     0.74800
O34         O  0.99140507  0.37681503  0.59849143    -0.58600
O35         O  0.94230727  0.30951458  0.62020245    -0.48700
O36         O  0.99190153  0.37625363  0.61529236    -0.55100
C37         C  0.93425790  0.30122706  0.59135738     0.85000
O38         O  0.00989259  0.30462623  0.60260227    -0.57000
O39         O  0.98393095  0.30303046  0.62133059    -0.60200
In40       In  0.61435959  0.97243442  0.60974282     1.36900
C41         C  0.55576544  0.96343595  0.61608812     0.77400
O42         O  0.64648744  0.01531041  0.62097410    -0.61000
O43         O  0.63456556  0.96547295  0.62478629    -0.51900
C44         C  0.62260521  0.92022271  0.60654449     0.70100
O45         O  0.59501008  0.91732587  0.60902658    -0.46800
C46         C  0.62440455  0.99998244  0.59037742     0.74800
O47         O  0.55955446  0.93969460  0.61290278    -0.58600
O48         O  0.64572226  0.01346821  0.59763663    -0.48700
O49         O  0.58206267  0.99177958  0.61610035    -0.55100
C50         C  0.64877960  0.99576229  0.62757025     0.85000
O51         O  0.64617267  0.95026541  0.60540842    -0.57000
O52         O  0.59891302  0.97293266  0.59310037    -0.60200
In53       In  0.29682398  0.97695197  0.60990344     1.36900
C54         C  0.34500817  0.96562999  0.61612330     0.77400
O55         O  0.31256379  0.97521394  0.59337694    -0.61000
O56         O  0.30446610  0.01528866  0.59695397    -0.51900
C57         C  0.23770659  0.92188381  0.60919900     0.70100
O58         O  0.26280069  0.92263435  0.61332105    -0.46800
C59         C  0.29411969  0.00918249  0.62699946     0.74800
O60         O  0.31704997  0.94233410  0.61307328    -0.58600
O61         O  0.31920187  0.02075073  0.62103894    -0.48700
O62         O  0.34805081  0.99445328  0.61601398    -0.55100
C63         C  0.31357524  0.00162763  0.59014122     0.85000
O64         O  0.24288383  0.94973613  0.60541391    -0.57000
O65         O  0.26907761  0.98310815  0.62355380    -0.60200
In66       In  0.96041564  0.64770760  0.60801230     1.36900
C67         C  0.97832672  0.60128366  0.60744431     0.77400
O68         O  0.94508993  0.67177778  0.62077726    -0.61000
O69         O  0.92966609  0.62028371  0.62237644    -0.51900
C70         C  0.01841684  0.70531644  0.60716657     0.70100
O71         O  0.01629855  0.67719771  0.60870766    -0.46800
C72         C  0.92329596  0.63527537  0.59053484     0.74800
O73         O  0.96596614  0.60812095  0.59958802    -0.58600
O74         O  0.95189819  0.66067258  0.59152600    -0.48700
O75         O  0.98239544  0.61896490  0.61550899    -0.55100
C76         C  0.93120814  0.64577771  0.62654340     0.85000
O77         O  0.99081952  0.70389623  0.60595294    -0.57000
O78         O  0.91233588  0.61765062  0.59885312    -0.60200
C79         C  0.63919377  0.54643959  0.51451931    -0.02600
C80         C  0.52342111  0.65699923  0.47726920    -0.02600
C81         C  0.63239642  0.09699143  0.51737345    -0.02600
C82         C  0.52325871  0.87741686  0.47699154    -0.02600
C83         C  0.85565360  0.54274622  0.51748060    -0.02600
C84         C  0.08195639  0.65309567  0.47944855    -0.02600
C85         C  0.40995728  0.09745550  0.51772265    -0.02600
C86         C  0.30014991  0.87718118  0.47725323    -0.02600
C87         C  0.41358940  0.32312650  0.51773572    -0.02600
C88         C  0.29949351  0.43145850  0.47941195    -0.02600
C89         C  0.07986075  0.42779085  0.48136263    -0.02600
C90         C  0.85511833  0.31764434  0.51978617    -0.02600
In91       In  0.96867558  0.64917685  0.39033012     1.36900
C92         C  0.94323482  0.58299073  0.38922644     0.77400
O93         O  0.00232837  0.65682308  0.37645040    -0.61000
O94         O  0.97755250  0.68465538  0.37666858    -0.51900
C95         C  0.91506635  0.65469158  0.39371230     0.70100
O96         O  0.91444711  0.62695540  0.39400142    -0.46800
C97         C  0.01257258  0.67193737  0.40626832     0.74800
O98         O  0.95214050  0.59907698  0.39778678    -0.58600
O99         O  0.01643631  0.65883919  0.39810472    -0.48700
O100        O  0.94562312  0.60061477  0.38119383    -0.55100
C101        C  0.99625979  0.67720889  0.37164038     0.85000
O102        O  0.94341531  0.67990496  0.39183501    -0.57000
O103        O  0.98776585  0.67592636  0.40589059    -0.60200
In104      In  0.97636331  0.32972189  0.38976056     1.36900
C105        C  0.95624743  0.37457699  0.38907166     0.77400
O106        O  0.98593615  0.31736450  0.40639840    -0.61000
O107        O  0.02308126  0.36187797  0.39908782    -0.51900
C108        C  0.91836775  0.27119346  0.38908989     0.70100
O109        O  0.92085769  0.29969301  0.38818770    -0.46800
C110        C  0.01055974  0.33630369  0.37204232     0.74800
O111        O  0.95973614  0.36240879  0.39765303    -0.58600
O112        O  0.99234994  0.30810653  0.37644976    -0.48700
O113        O  0.96200473  0.36287101  0.38087411    -0.55100
C114        C  0.01350522  0.34413008  0.40736506     0.85000
O115        O  0.94589719  0.27237290  0.39038150    -0.57000
O116        O  0.01348636  0.36087168  0.37722080    -0.60200
In117      In  0.63603879  0.99750814  0.38805420     1.36900
C118        C  0.59143075  0.01687311  0.39098271     0.77400
O119        O  0.60471567  0.97048682  0.37391929    -0.61000
O120        O  0.65209440  0.97522627  0.37484875    -0.51900
C121        C  0.69583554  0.05467162  0.38778928     0.70100
O122        O  0.66854708  0.05401984  0.38693432    -0.46800
C123        C  0.62385368  0.95819854  0.40517590     0.74800
O124        O  0.60917295  0.02432728  0.38274525    -0.58600
O125        O  0.60734312  0.94743701  0.39674594    -0.48700
O126        O  0.59748366  0.00067645  0.39784774    -0.55100
C127        C  0.62595248  0.96543972  0.36950305     0.85000
O128        O  0.69271447  0.02584421  0.38873624    -0.57000
O129        O  0.64821976  0.98782809  0.40444060    -0.60200
In130      In  0.64750595  0.66686320  0.39038568     1.36900
C131        C  0.60050727  0.60277229  0.39161534     0.77400
O132        O  0.65907010  0.69452034  0.40589290    -0.61000
O133        O  0.61408963  0.68276152  0.39833711    -0.51900
C134        C  0.70405817  0.66472925  0.39195884     0.70100
O135        O  0.67567996  0.63968794  0.39365855    -0.46800
C136        C  0.64321490  0.69110421  0.37143407     0.74800
O137        O  0.61091397  0.62169236  0.39958856    -0.58600
O138        O  0.62074839  0.66392310  0.37537341    -0.48700
O139        O  0.61573259  0.61622364  0.38307965    -0.55100
C140        C  0.63169506  0.69377236  0.40651331     0.85000
O141        O  0.70365025  0.69106132  0.38934521    -0.57000
O142        O  0.66796369  0.70725451  0.37742018    -0.60200
In143      In  0.31557762  0.34219379  0.39031091     1.36900
C144        C  0.37870737  0.39132344  0.39145302     0.77400
O145        O  0.28063489  0.31536189  0.37680024    -0.61000
O146        O  0.30865615  0.36846012  0.37621693    -0.51900
C147        C  0.31770088  0.28547186  0.39187315     0.70100
O148        O  0.34352565  0.31404491  0.39090860    -0.46800
C149        C  0.28464430  0.35040721  0.40676867     0.74800
O150        O  0.35951186  0.38119272  0.39936266    -0.58600
O151        O  0.29198388  0.36868168  0.39858473    -0.48700
O152        O  0.36579435  0.37553978  0.38301976    -0.55100
C153        C  0.28857234  0.34172635  0.37154692     0.85000
O154        O  0.29090560  0.28605523  0.39199834    -0.57000
O155        O  0.29138774  0.32720798  0.40617270    -0.60200
In156      In  0.31842605  0.00902945  0.39084867     1.36900
C157        C  0.38168161  0.02530136  0.39294145     0.77400
O158        O  0.29573105  0.99626024  0.40710335    -0.61000
O159        O  0.29301077  0.95668219  0.39789191    -0.51900
C160        C  0.31824675  0.06686316  0.39194562     0.70100
O161        O  0.34444976  0.06536800  0.39111871    -0.46800
C162        C  0.29454170  0.98241057  0.37185229     0.74800
O163        O  0.37035207  0.03095166  0.38457608    -0.58600
O164        O  0.28366339  0.99805129  0.37708208    -0.48700
O165        O  0.36090329  0.01261368  0.40039492    -0.55100
C166        C  0.28767199  0.96568424  0.40671687     0.85000
O167        O  0.29186665  0.03854221  0.39231557    -0.57000
O168        O  0.31649109  0.97896378  0.37657515    -0.60200
In169      In  0.99636276  0.66091370  0.94345546     1.36900
C170        C  0.05357529  0.71679139  0.94691139     0.77400
O171        O  0.96625025  0.61989336  0.95574076    -0.61000
O172        O  0.01817520  0.64854642  0.95747657    -0.51900
C173        C  0.94144290  0.66505316  0.94293838     0.70100
O174        O  0.96880474  0.68840054  0.94648653    -0.46800
C175        C  0.00850542  0.65047593  0.92361416     0.74800
O176        O  0.02604539  0.71592080  0.94783184    -0.58600
O177        O  0.00294044  0.62916680  0.93089640    -0.48700
O178        O  0.05124838  0.68928498  0.94427490    -0.55100
C179        C  0.99099333  0.62727402  0.96155118     0.85000
O180        O  0.94231651  0.63952159  0.93971665    -0.57000
O181        O  0.00492060  0.67462231  0.92642055    -0.60200
In182      In  0.97654593  0.31523459  0.93999385     1.36900
C183        C  0.02050905  0.29491644  0.94200064     0.77400
O184        O  0.97146737  0.32518178  0.92277474    -0.61000
O185        O  0.01058553  0.36436872  0.93126916    -0.51900
C186        C  0.91796845  0.25787371  0.93969154     0.70100
O187        O  0.94411812  0.25949091  0.94323518    -0.46800
C188        C  0.97250389  0.34633581  0.95725426     0.74800
O189        O  0.01242805  0.30707140  0.94955402    -0.58600
O190        O  0.99973418  0.35219831  0.95331249    -0.48700
O191        O  0.00508804  0.29196289  0.93349255    -0.55100
C192        C  0.99681942  0.35412970  0.92242281     0.85000
O193        O  0.92189766  0.28567478  0.93636307    -0.57000
O194        O  0.94742690  0.32680266  0.95183635    -0.60200
In195      In  0.28868923  0.29402749  0.94118004     1.36900
C196        C  0.22666428  0.28067138  0.94352140     0.77400
O197        O  0.31572154  0.29718261  0.95623761    -0.61000
O198        O  0.30362489  0.33517825  0.95320501    -0.51900
C199        C  0.29408794  0.23945756  0.94070627     0.70100
O200        O  0.26855212  0.23927339  0.94415040    -0.46800
C201        C  0.30665645  0.32545278  0.92242464     0.74800
O202        O  0.25117765  0.30582383  0.94760791    -0.58600
O203        O  0.32575291  0.33659157  0.93032602    -0.48700
O204        O  0.23371166  0.26155862  0.93846612    -0.55100
C205        C  0.31530312  0.32267568  0.95963295     0.85000
O206        O  0.31727352  0.26796545  0.93763780    -0.57000
O207        O  0.27997374  0.29856245  0.92421292    -0.60200
In208      In  0.33138558  0.98497127  0.94578709     1.36900
C209        C  0.27541509  0.92814338  0.94964843     0.77400
O210        O  0.31669342  0.97743778  0.92884575    -0.61000
O211        O  0.36219900  0.97998366  0.93264896    -0.51900
C212        C  0.32340873  0.03788001  0.94500198     0.70100
O213        O  0.30204785  0.01005077  0.94904410    -0.46800
C214        C  0.36788653  0.99321058  0.96316966     0.74800
O215        O  0.27897036  0.95657216  0.95181690    -0.58600
O216        O  0.34756542  0.96486638  0.95946181    -0.48700
O217        O  0.30092976  0.92903379  0.94585661    -0.55100
C218        C  0.34106805  0.97542715  0.92556305     0.85000
O219        O  0.34946950  0.03886816  0.94165398    -0.57000
O220        O  0.37288189  0.01746994  0.95723973    -0.60200
In221      In  0.63731432  0.98592857  0.94305772     1.36900
C222        C  0.64606975  0.93310751  0.94431967     0.77400
O223        O  0.60685571  0.96232290  0.95780929    -0.61000
O224        O  0.62458380  0.01392846  0.95528078    -0.51900
C225        C  0.69548883  0.04313455  0.94228365     0.70100
O226        O  0.69237084  0.01599438  0.94592013    -0.46800
C227        C  0.60953067  0.97773696  0.92385835     0.74800
O228        O  0.61842606  0.93054416  0.94215678    -0.58600
O229        O  0.59275114  0.97213034  0.93223343    -0.48700
O230        O  0.66932827  0.96285174  0.94584812    -0.55100
C231        C  0.60937979  0.98892541  0.96137928     0.85000
O232        O  0.66857278  0.04103692  0.93926432    -0.57000
O233        O  0.63987526  0.98830775  0.92541987    -0.60200
In234      In  0.67039721  0.67056283  0.94323682     1.36900
C235        C  0.66859905  0.72686529  0.94658256     0.77400
O236        O  0.67226401  0.68411353  0.92624318    -0.61000
O237        O  0.63444759  0.63521690  0.93087308    -0.51900
C238        C  0.72772166  0.67115553  0.94226222     0.70100
O239        O  0.72539108  0.69581284  0.94555141    -0.46800
C240        C  0.64086914  0.63620302  0.96092234     0.74800
O241        O  0.64309434  0.69831923  0.94560270    -0.58600
O242        O  0.67105793  0.64714353  0.95891354    -0.48700
O243        O  0.69560051  0.72666502  0.94632610    -0.55100
C244        C  0.64678920  0.65709648  0.92356966     0.85000
O245        O  0.70045882  0.64607455  0.93933248    -0.57000
O246        O  0.62511136  0.64039055  0.95353745    -0.60200
C247        C  0.76893644  0.77449828  0.81278639    -0.02600
C248        C  0.54548877  0.66160720  0.85260927    -0.02600
C249        C  0.77150057  0.00002324  0.81358235    -0.02600
C250        C  0.54543924  0.88506061  0.85083490    -0.02600
C251        C  0.98760812  0.77430768  0.81322029    -0.02600
C252        C  0.10446378  0.66569171  0.85035676    -0.02600
C253        C  0.99535732  0.22006191  0.80927114    -0.02600
C254        C  0.10118373  0.44244785  0.85065203    -0.02600
C255        C  0.21620348  0.22020634  0.81373653    -0.02600
C256        C  0.31955149  0.44048056  0.85224189    -0.02600
C257        C  0.21310541  0.99624652  0.81328321    -0.02600
C258        C  0.33060166  0.89093298  0.85071664    -0.02600
In259      In  0.00251333  0.34973136  0.72170134     1.36900
C260        C  0.06749942  0.37361024  0.72386799     0.77400
O261        O  0.99270467  0.30099172  0.72911052    -0.61000
O262        O  0.97606524  0.32960390  0.73738112    -0.51900
C263        C  0.99832040  0.40554382  0.72198177     0.70100
O264        O  0.02260976  0.40434390  0.71810308    -0.46800
C265        C  0.97583014  0.31945065  0.70331851     0.74800
O266        O  0.04871008  0.36852932  0.73170650    -0.58600
O267        O  0.00167692  0.32174506  0.70726027    -0.48700
O268        O  0.05332987  0.36864918  0.71500471    -0.55100
C269        C  0.97995767  0.30436757  0.73744478     0.85000
O270        O  0.97585021  0.37793281  0.72581707    -0.57000
O271        O  0.96204010  0.33115661  0.70908781    -0.60200
In272      In  0.32243332  0.34850505  0.72402826     1.36900
C273        C  0.28003998  0.37117377  0.72560976     0.77400
O274        O  0.28682843  0.31592573  0.71152745    -0.61000
O275        O  0.33632655  0.32603698  0.71042426    -0.51900
C276        C  0.38385825  0.40121481  0.72225243     0.70100
O277        O  0.35830235  0.40408076  0.72225942    -0.46800
C278        C  0.31386372  0.31396204  0.74191241     0.74800
O279        O  0.29513737  0.37282923  0.71713895    -0.58600
O280        O  0.29760122  0.30018154  0.73363365    -0.48700
O281        O  0.28801106  0.35952045  0.73342607    -0.55100
C282        C  0.30807716  0.31322611  0.70615309     0.85000
O283        O  0.37786299  0.37129082  0.72302189    -0.57000
O284        O  0.33584914  0.34441803  0.74072504    -0.60200
In285      In  0.67166286  0.66358699  0.72063947     1.36900
C286        C  0.66590757  0.71784409  0.72163090     0.77400
O287        O  0.67109226  0.65533155  0.73820394    -0.61000
O288        O  0.71809214  0.68343922  0.73087107    -0.51900
C289        C  0.61342286  0.60625074  0.72066159     0.70100
O290        O  0.61631649  0.63503207  0.72053658    -0.46800
C291        C  0.69693218  0.66804730  0.70121032     0.74800
O292        O  0.64112634  0.68884811  0.72016215    -0.58600
O293        O  0.69589226  0.64708143  0.70796201    -0.48700
O294        O  0.69333333  0.71874995  0.72256976    -0.55100
C295        C  0.70200400  0.67351884  0.73943760     0.85000
O296        O  0.64078336  0.60655912  0.72073001    -0.57000
O297        O  0.68562945  0.68595639  0.70450958    -0.60200
In298      In  0.64186724  0.98033183  0.72423223     1.36900
C299        C  0.64621424  0.92515180  0.72519362     0.77400
O300        O  0.64383886  0.96981616  0.70731773    -0.61000
O301        O  0.67332580  0.02080732  0.71209392    -0.51900
C302        C  0.58717149  0.98464228  0.72401756     0.70100
O303        O  0.58661695  0.95690763  0.72399885    -0.46800
C304        C  0.66810511  0.00120293  0.74319119     0.74800
O305        O  0.61850643  0.92404990  0.72496984    -0.58600
O306        O  0.68437577  0.01523181  0.73484767    -0.48700
O307        O  0.67133262  0.95446228  0.72504193    -0.55100
C308        C  0.66413752  0.99973175  0.70465601     0.85000
O309        O  0.61593556  0.01031421  0.72412164    -0.57000
O310        O  0.63824888  0.97884491  0.74168620    -0.60200
In311      In  0.31480455  0.98646787  0.72150870     1.36900
C312        C  0.27103327  0.92121178  0.72071436     0.77400
O313        O  0.32419745  0.01082081  0.73763812    -0.61000
O314        O  0.27754928  0.99404347  0.73042568    -0.51900
C315        C  0.37312494  0.98899309  0.72246668     0.70100
O316        O  0.34634103  0.96269234  0.72007461    -0.46800
C317        C  0.31276690  0.01798252  0.70388143     0.74800
O318        O  0.28458345  0.93594357  0.72923383    -0.58600
O319        O  0.28752419  0.99899659  0.70932461    -0.48700
O320        O  0.28214644  0.93935858  0.71250361    -0.55100
C321        C  0.29519167  0.00612682  0.73852027     0.85000
O322        O  0.37008298  0.01425979  0.72442119    -0.57000
O323        O  0.33969581  0.02311418  0.70789399    -0.60200
In324      In  0.98001452  0.67240042  0.72109699     1.36900
C325        C  0.04436409  0.71812614  0.72060012     0.77400
O326        O  0.96533085  0.69137862  0.70682351    -0.61000
O327        O  0.93703401  0.63939468  0.71023854    -0.51900
C328        C  0.98661135  0.61822685  0.72260657     0.70100
O329        O  0.00402769  0.64266451  0.71648374    -0.46800
C330        C  0.96049495  0.69383746  0.73770767     0.74800
O331        O  0.02968038  0.70177729  0.72885856    -0.58600
O332        O  0.97638251  0.71261693  0.73001838    -0.48700
O333        O  0.02617185  0.71035313  0.71247584    -0.55100
C334        C  0.94269703  0.66287738  0.70386617     0.85000
O335        O  0.96570211  0.62151934  0.72803900    -0.57000
O336        O  0.95157517  0.66328007  0.73640779    -0.60200
In337      In  0.63267827  0.00499842  0.05709315     1.36900
C338        C  0.69614513  0.05351352  0.05686352     0.77400
O339        O  0.59359748  0.97563242  0.04460892    -0.61000
O340        O  0.62289143  0.02837712  0.04284806    -0.51900
C341        C  0.63886989  0.95018963  0.05827408     0.70100
O342        O  0.66251677  0.97901130  0.05583623    -0.46800
C343        C  0.60926081  0.02119536  0.07408935     0.74800
O344        O  0.68096241  0.03878053  0.06525861    -0.58600
O345        O  0.61003691  0.99429243  0.07345936    -0.48700
O346        O  0.67903294  0.04259500  0.04854475    -0.55100
C347        C  0.60150074  0.00101330  0.03880346     0.85000
O348        O  0.61159484  0.94913459  0.05992762    -0.57000
O349        O  0.61713247  0.03810363  0.06562696    -0.60200
In350      In  0.66704494  0.68873596  0.05508297     1.36900
C351        C  0.73192818  0.71028780  0.05508799     0.77400
O352        O  0.66035519  0.64397932  0.06426054    -0.61000
O353        O  0.63384891  0.66706689  0.06961107    -0.51900
C354        C  0.66262960  0.74406234  0.05788358     0.70100
O355        O  0.68996905  0.74508611  0.05644747    -0.46800
C356        C  0.63938640  0.65736073  0.03683138     0.74800
O357        O  0.71547158  0.70585125  0.06347943    -0.58600
O358        O  0.65468324  0.64829478  0.04298106    -0.48700
O359        O  0.71568212  0.70635228  0.04666754    -0.55100
C360        C  0.64148017  0.64471552  0.07119379     0.85000
O361        O  0.63758999  0.71468824  0.05788794    -0.57000
O362        O  0.63723119  0.68192720  0.04015404    -0.60200
In363      In  0.98592651  0.68233103  0.05554960     1.36900
C364        C  0.94555340  0.70783828  0.05506995     0.77400
O365        O  0.95892103  0.64351533  0.04287027    -0.61000
O366        O  0.01114881  0.66743185  0.04316127    -0.51900
C367        C  0.04619438  0.73745384  0.05620131     0.70100
O368        O  0.02243639  0.73537223  0.05076400    -0.46800
C369        C  0.96412766  0.64149037  0.07250919     0.74800
O370        O  0.96024446  0.70706113  0.06338864    -0.58600
O371        O  0.99433937  0.66324593  0.07116522    -0.48700
O372        O  0.95355269  0.69793142  0.04690644    -0.55100
C373        C  0.98475124  0.64746807  0.03841022     0.85000
O374        O  0.03895814  0.71128928  0.06154315    -0.57000
O375        O  0.94572792  0.63931644  0.06489416    -0.60200
In376      In  0.32425358  0.01113537  0.05757814     1.36900
C377        C  0.29863362  0.05167937  0.05865556     0.77400
O378        O  0.34042129  0.00399641  0.07376473    -0.61000
O379        O  0.37202908  0.04896478  0.06527986    -0.51900
C380        C  0.26898653  0.95081655  0.05722000     0.70100
O381        O  0.27204668  0.97668402  0.05264462    -0.46800
C382        C  0.35640734  0.01163887  0.03997263     0.74800
O383        O  0.30467246  0.04209436  0.05004846    -0.58600
O384        O  0.34182065  0.98628642  0.04598014    -0.48700
O385        O  0.30491361  0.03979518  0.06679424    -0.55100
C386        C  0.36648719  0.03258335  0.07381484     0.85000
O387        O  0.29438089  0.95575117  0.06234767    -0.57000
O388        O  0.35660465  0.03739624  0.04337892    -0.60200
In389      In  0.29239356  0.31821645  0.05652686     1.36900
C390        C  0.27197776  0.25292304  0.05806766     0.77400
O391        O  0.32595332  0.32411356  0.04295040    -0.61000
O392        O  0.29966467  0.35033456  0.04197694    -0.51900
C393        C  0.23652721  0.32060589  0.05759953     0.70100
O394        O  0.23669260  0.29335562  0.05679016    -0.46800
C395        C  0.33728018  0.34688905  0.07205044     0.74800
O396        O  0.27408979  0.26748217  0.04935156    -0.58600
O397        O  0.34157764  0.33319710  0.06411366    -0.48700
O398        O  0.27809061  0.27135251  0.06608767    -0.55100
C399        C  0.31853964  0.34220102  0.03740394     0.85000
O400        O  0.26505520  0.34656246  0.05822373    -0.57000
O401        O  0.31098787  0.34837866  0.07170113    -0.60200
In402      In  0.96697032  0.32862194  0.05364661     1.36900
C403        C  0.91815275  0.26514989  0.05519076     0.77400
O404        O  0.98255960  0.35446266  0.06927897    -0.61000
O405        O  0.93914135  0.34994253  0.06236510    -0.51900
C406        C  0.02335100  0.32655098  0.05433959     0.70100
O407        O  0.99506931  0.30039165  0.05491427    -0.46800
C408        C  0.96435764  0.35412282  0.03475028     0.74800
O409        O  0.92907126  0.28436369  0.06308774    -0.58600
O410        O  0.98993119  0.36753976  0.04048488    -0.48700
O411        O  0.93362802  0.27792180  0.04664809    -0.55100
C412        C  0.95800793  0.35862601  0.07031646     0.85000
O413        O  0.02258594  0.35343435  0.05330865    -0.57000
O414        O  0.93963003  0.32954254  0.03906132    -0.60200
C415        C  0.76141580  0.78755697  0.18586848    -0.02600
C416        C  0.64966865  0.56536757  0.14427090    -0.02600
C417        C  0.75934583  0.00973568  0.18586737    -0.02600
C418        C  0.65113187  0.12390098  0.14589575    -0.02600
C419        C  0.42534022  0.34417770  0.14400677    -0.02600
C420        C  0.20488924  0.23489824  0.18541474    -0.02600
C421        C  0.43240352  0.12341833  0.14665765    -0.02600
C422        C  0.20703423  0.01107099  0.18545731    -0.02600
C423        C  0.98512075  0.79073231  0.18648835    -0.02600
C424        C  0.87225442  0.56640785  0.14578939    -0.02600
C425        C  0.87731550  0.34619374  0.14408558    -0.02600
C426        C  0.98517923  0.23442764  0.18498366    -0.02600
In427      In  0.96582452  0.33377602  0.27784469     1.36900
C428        C  0.90784697  0.27999923  0.28331214     0.77400
O429        O  0.94919245  0.31346740  0.26166970    -0.61000
O430        O  0.99921844  0.32961350  0.26551804    -0.51900
C431        C  0.96836531  0.39205406  0.27428340     0.70100
O432        O  0.94316322  0.36629510  0.27799717    -0.46800
C433        C  0.00142013  0.34385235  0.29545406     0.74800
O434        O  0.91058688  0.30744125  0.28025514    -0.58600
O435        O  0.98739835  0.36040451  0.29317298    -0.48700
O436        O  0.93509637  0.28047751  0.28402489    -0.55100
C437        C  0.97635705  0.31660258  0.25869865     0.85000
O438        O  0.99285542  0.38811901  0.27234507    -0.57000
O439        O  0.99858127  0.32308555  0.28848096    -0.60200
In440      In  0.97528244  0.67126333  0.27482312     1.36900
C441        C  0.91087889  0.65299880  0.27465481     0.77400
O442        O  0.98505425  0.70377303  0.28917173    -0.61000
O443        O  0.00924614  0.67543982  0.28825515    -0.51900
C444        C  0.97394311  0.61307415  0.27250129     0.70100
O445        O  0.94834138  0.61498808  0.27438350    -0.46800
C446        C  0.00375590  0.71498810  0.25870975     0.74800
O447        O  0.92696651  0.65679883  0.28307314    -0.58600
O448        O  0.99552766  0.72299643  0.26721373    -0.48700
O449        O  0.92760058  0.65778017  0.26631526    -0.55100
C450        C  0.00318107  0.69446216  0.29374306     0.85000
O451        O  0.00053667  0.64116522  0.27184929    -0.57000
O452        O  0.99950563  0.68573187  0.25881216    -0.60200
In453      In  0.64709916  0.66534104  0.27528801     1.36900
C454        C  0.69372078  0.64784493  0.27516656     0.77400
O455        O  0.63907142  0.67618453  0.25849784    -0.61000
O456        O  0.67752654  0.71615404  0.26701169    -0.51900
C457        C  0.58895364  0.60743878  0.27489316     0.70100
O458        O  0.61624318  0.60885735  0.27683230    -0.46800
C459        C  0.64447591  0.69275817  0.29362285     0.74800
O460        O  0.68297166  0.65359424  0.28358250    -0.58600
O461        O  0.61946519  0.67651051  0.28778137    -0.48700
O462        O  0.67945115  0.64952360  0.26688005    -0.55100
C463        C  0.66312861  0.70593439  0.25823034     0.85000
O464        O  0.59149268  0.63569498  0.27310738    -0.57000
O465        O  0.67130076  0.69748470  0.28964536    -0.60200
In466      In  0.63358374  0.01293750  0.27532489     1.36900
C467        C  0.68705143  0.06860184  0.28218619     0.77400
O468        O  0.60597832  0.99030456  0.29042009    -0.61000
O469        O  0.64134828  0.97693698  0.28559457    -0.51900
C470        C  0.57635811  0.01142552  0.27193033     0.70100
O471        O  0.60153578  0.03625598  0.27595517    -0.46800
C472        C  0.65449817  0.00587725  0.25632490     0.74800
O473        O  0.66194623  0.06862693  0.27842894    -0.58600
O474        O  0.65565965  0.03234915  0.25945786    -0.48700
O475        O  0.68425123  0.03993616  0.28274209    -0.55100
C476        C  0.62125607  0.97495357  0.29263895     0.85000
O477        O  0.58067350  0.98729095  0.26939005    -0.57000
O478        O  0.64072685  0.98149440  0.26278656    -0.60200
In479      In  0.29711145  0.99833614  0.27532037     1.36900
C480        C  0.31308776  0.06302970  0.27486541     0.77400
O481        O  0.28578411  0.97244938  0.25969581    -0.61000
O482        O  0.24812388  0.97911066  0.26646164    -0.51900
C483        C  0.35550869  0.00152951  0.27314031     0.70100
O484        O  0.35299570  0.02653890  0.27586217    -0.46800
C485        C  0.27315203  0.96818880  0.29403972     0.74800
O486        O  0.30929597  0.04699707  0.28338789    -0.58600
O487        O  0.26141723  0.98380214  0.28911448    -0.48700
O488        O  0.30952594  0.04616021  0.26664711    -0.55100
C489        C  0.25778330  0.96985313  0.25852548     0.85000
O490        O  0.32807169  0.97490857  0.27161968    -0.57000
O491        O  0.29461834  0.96520292  0.28891558    -0.60200
In492      In  0.30806117  0.33483947  0.27518659     1.36900
C493        C  0.32270215  0.28576241  0.27430433     0.77400
O494        O  0.27766139  0.30850736  0.28970998    -0.61000
O495        O  0.29467624  0.36035843  0.28785430    -0.51900
C496        C  0.36708218  0.39187497  0.27451558     0.70100
O497        O  0.36397665  0.36302941  0.27498836    -0.46800
C498        C  0.26947628  0.32440348  0.25827438     0.74800
O499        O  0.32525661  0.30161257  0.28270276    -0.58600
O500        O  0.25872608  0.30647748  0.26652931    -0.48700
O501        O  0.31397906  0.29604444  0.26630568    -0.55100
C502        C  0.28023093  0.33467749  0.29372213     0.85000
O503        O  0.33986362  0.39159185  0.27427863    -0.57000
O504        O  0.29870651  0.34881633  0.25907527    -0.60200
C505        C  0.32026880  0.09828585  0.27445730    -0.01400
C506        C  0.32064947  0.11311474  0.26469691    -0.09400
C507        C  0.32464262  0.14528653  0.26415454    -0.18300
C508        C  0.32835288  0.16386327  0.27343652     0.04100
C509        C  0.32968715  0.14943753  0.28330523     0.18300
C510        C  0.32548847  0.11687913  0.28373638    -0.19700
C511        C  0.33446809  0.16730114  0.29269553    -0.21000
C512        C  0.33671890  0.19867002  0.29254837    -0.19500
C513        C  0.33371959  0.21274457  0.28302977     0.19700
C514        C  0.32990315  0.19576010  0.27330873     0.01800
C515        C  0.32645399  0.21082721  0.26394095    -0.14200
C516        C  0.32532364  0.24058962  0.26428614    -0.12000
C517        C  0.32802378  0.25663604  0.27391454     0.01300
C518        C  0.33318466  0.24308157  0.28322675    -0.24100
H519        H  0.31710287  0.09945924  0.25740558     0.09400
H520        H  0.32436012  0.15471802  0.25634445     0.12900
H521        H  0.32565203  0.10576312  0.29132608     0.11600
H522        H  0.33594342  0.15669561  0.30023370     0.12800
H523        H  0.33985861  0.21157061  0.29998035     0.11900
H524        H  0.32348965  0.19972406  0.25624767     0.08900
H525        H  0.32145254  0.25063118  0.25697773     0.12200
H526        H  0.33530816  0.25535466  0.29072239     0.14100
C527        C  0.38786614  0.00314335  0.27191406    -0.01400
C528        C  0.38940459  0.97575130  0.26780449    -0.09400
C529        C  0.41980258  0.97671445  0.26690845    -0.18300
C530        C  0.44980277  0.00518364  0.27023195     0.04100
C531        C  0.44804127  0.03303754  0.27429614     0.18300
C532        C  0.41735885  0.03188306  0.27500520    -0.19700
C533        C  0.47682317  0.06167890  0.27783230    -0.21000
C534        C  0.50731742  0.06301777  0.27767537    -0.19500
C535        C  0.50987380  0.03587440  0.27388329     0.19700
C536        C  0.48131350  0.00676632  0.26992572     0.01800
C537        C  0.48554855  0.98035948  0.26602351    -0.14200
C538        C  0.51649603  0.98226309  0.26644740    -0.12000
C539        C  0.54423979  0.01050928  0.27069160     0.01300
C540        C  0.54081884  0.03747110  0.27421953    -0.24100
H541        H  0.36693210  0.95332143  0.26530532     0.09400
H542        H  0.41889431  0.95457493  0.26374095     0.12900
H543        H  0.41637443  0.05320569  0.27819256     0.11600
H544        H  0.47565664  0.08300787  0.28091154     0.12800
H545        H  0.52903182  0.08534845  0.28064695     0.11900
H546        H  0.46537495  0.95773471  0.26270092     0.08900
H547        H  0.51857291  0.96123897  0.26358966     0.12200
H548        H  0.56219848  0.05956927  0.27746441     0.14100
C549        C  0.39993295  0.42320745  0.27437090    -0.01400
C550        C  0.42899970  0.42143984  0.27525375    -0.09400
C551        C  0.46023068  0.45062418  0.27533941    -0.18300
C552        C  0.46352450  0.48288224  0.27451355     0.04100
C553        C  0.43393271  0.48458278  0.27352749     0.18300
C554        C  0.40257694  0.45491602  0.27349000    -0.19700
C555        C  0.43582105  0.51588120  0.27260004    -0.21000
C556        C  0.46647085  0.54558748  0.27262561    -0.19500
C557        C  0.49604765  0.54480448  0.27362842     0.19700
C558        C  0.49504233  0.51345247  0.27462378     0.01800
C559        C  0.52565767  0.51414057  0.27572343    -0.14200
C560        C  0.55585346  0.54457971  0.27581636    -0.12000
C561        C  0.55672918  0.57536021  0.27476877     0.01300
C562        C  0.52668071  0.57526521  0.27366663    -0.24100
H563        H  0.42763582  0.39726184  0.27594227     0.09400
H564        H  0.48128241  0.44700161  0.27605536     0.12900
H565        H  0.38019717  0.45653748  0.27278539     0.11600
H566        H  0.41341258  0.51740760  0.27183752     0.12800
H567        H  0.46703584  0.56938198  0.27187927     0.11900
H568        H  0.52718861  0.49162691  0.27656913     0.08900
H569        H  0.57871080  0.54397237  0.27668649     0.12200
H570        H  0.52709567  0.59899030  0.27289768     0.14100
C571        C  0.87575744  0.64471407  0.27456512    -0.01400
C572        C  0.85913382  0.64057033  0.26495541    -0.09400
C573        C  0.82729752  0.63648516  0.26471650    -0.18300
C574        C  0.81114420  0.63687703  0.27414948     0.04100
C575        C  0.82748600  0.63939970  0.28391944     0.18300
C576        C  0.85931983  0.64297242  0.28404219    -0.19700
C577        C  0.81256086  0.63970995  0.29349436    -0.21000
C578        C  0.78249247  0.63931419  0.29356978    -0.19500
C579        C  0.76650967  0.63841144  0.28407487     0.19700
C580        C  0.78010856  0.63627287  0.27423106     0.01800
C581        C  0.76266025  0.63494881  0.26488955    -0.14200
C582        C  0.73402701  0.63749496  0.26528448    -0.12000
C583        C  0.72164480  0.64116788  0.27496140     0.01300
C584        C  0.73754818  0.64076440  0.28435151    -0.24100
H585        H  0.87114374  0.64135335  0.25753561     0.09400
H586        H  0.81644180  0.63402669  0.25699984     0.12900
H587        H  0.87189200  0.64583745  0.29153043     0.11600
H588        H  0.82470903  0.64126630  0.30097286     0.12800
H589        H  0.77207342  0.64055707  0.30110483     0.11900
H590        H  0.77086427  0.63271909  0.25712819     0.08900
H591        H  0.72202306  0.63749077  0.25792510     0.12200
H592        H  0.72800832  0.64341328  0.29188772     0.14100
C593        C  0.87526499  0.24952665  0.28536591    -0.01400
C594        C  0.87323588  0.21968739  0.28900691    -0.09400
C595        C  0.84242968  0.19005944  0.28999064    -0.18300
C596        C  0.81257281  0.18932807  0.28721304     0.04100
C597        C  0.81485884  0.21998925  0.28379058     0.18300
C598        C  0.84590451  0.24960036  0.28298304    -0.19700
C599        C  0.78625693  0.22080009  0.28086892    -0.21000
C600        C  0.75540706  0.19151592  0.28088597    -0.19500
C601        C  0.75240286  0.16070680  0.28382903     0.19700
C602        C  0.78074550  0.15918376  0.28728908     0.01800
C603        C  0.77607703  0.12733989  0.29027740    -0.14200
C604        C  0.74517121  0.09809446  0.28910167    -0.12000
C605        C  0.71792661  0.09968683  0.28507758     0.01300
C606        C  0.72139480  0.13117600  0.28286629    -0.24100
H607        H  0.89562821  0.21906546  0.29091693     0.09400
H608        H  0.84290543  0.16802670  0.29270722     0.12900
H609        H  0.84726039  0.27257991  0.28012890     0.11600
H610        H  0.78786075  0.24414170  0.27830779     0.12800
H611        H  0.73385297  0.19284836  0.27831697     0.11900
H612        H  0.79599392  0.12406298  0.29324912     0.08900
H613        H  0.74290176  0.07400157  0.29101818     0.12200
H614        H  0.70030114  0.13260941  0.27984586     0.14100
C615        C  0.96871794  0.42407656  0.27256739    -0.01400
C616        C  0.93879396  0.42428659  0.27306786    -0.09400
C617        C  0.93834289  0.45426195  0.27214616    -0.18300
C618        C  0.96812100  0.48543793  0.27082726     0.04100
C619        C  0.99849146  0.48513707  0.27015603     0.18300
C620        C  0.99849443  0.45453011  0.27089708    -0.19700
C621        C  0.02869516  0.51545874  0.26904932    -0.21000
C622        C  0.02950677  0.54616844  0.26894355    -0.19500
C623        C  0.00009651  0.54731767  0.26981601     0.19700
C624        C  0.96890087  0.51691008  0.27051122     0.01800
C625        C  0.93985174  0.51936279  0.27109379    -0.14200
C626        C  0.94180289  0.55058071  0.27154230    -0.12000
C627        C  0.97259414  0.58044659  0.27132103     0.01300
C628        C  0.00167836  0.57870375  0.27021750    -0.24100
H629        H  0.91543934  0.40105340  0.27429199     0.09400
H630        H  0.91428715  0.45213011  0.27275509     0.12900
H631        H  0.02178136  0.45455525  0.27053365     0.11600
H632        H  0.05193847  0.51547167  0.26849489     0.12800
H633        H  0.05335845  0.56920877  0.26831325     0.11900
H634        H  0.91518936  0.49767948  0.27131966     0.08900
H635        H  0.91894622  0.55127747  0.27219684     0.12200
H636        H  0.02561553  0.60175698  0.26991072     0.14100
C637        C  0.98006092  0.30516406  0.24813805    -0.01400
C638        C  0.00929008  0.30579187  0.24509465    -0.09400
C639        C  0.01158087  0.29349958  0.23518859    -0.18300
C640        C  0.98450860  0.28018144  0.22801842     0.04100
C641        C  0.95514838  0.28011074  0.23117688     0.18300
C642        C  0.95322232  0.29238229  0.24109853    -0.19700
C643        C  0.92769897  0.26779003  0.22442676    -0.21000
C644        C  0.92882132  0.25585991  0.21449146    -0.19500
C645        C  0.95730435  0.25566612  0.21109926     0.19700
C646        C  0.98541046  0.26727910  0.21780670     0.01800
C647        C  0.01292776  0.26530678  0.21396654    -0.14200
C648        C  0.01302120  0.25368501  0.20372578    -0.12000
C649        C  0.98597782  0.24432437  0.19680324     0.01300
C650        C  0.95780581  0.24438490  0.20089785    -0.24100
H651        H  0.03035476  0.31555950  0.25041879     0.09400
H652        H  0.03481801  0.29483566  0.23334400     0.12900
H653        H  0.93048804  0.29184382  0.24335997     0.11600
H654        H  0.90526391  0.26763880  0.22681341     0.12800
H655        H  0.90725508  0.24684301  0.20939569     0.11900
H656        H  0.03475356  0.27253962  0.21871474     0.08900
H657        H  0.03465903  0.25250158  0.20135224     0.12200
H658        H  0.93633614  0.23679164  0.19585270     0.14100
C659        C  0.89878227  0.33489982  0.15064532    -0.01400
C660        C  0.91214632  0.34681823  0.16075600    -0.09400
C661        C  0.93173208  0.33555925  0.16597410    -0.18300
C662        C  0.93826121  0.31130779  0.16138100     0.04100
C663        C  0.92416598  0.29871054  0.15132689     0.18300
C664        C  0.90481190  0.31020457  0.14621460    -0.19700
C665        C  0.92909272  0.27429796  0.14640782    -0.21000
C666        C  0.94689352  0.26121270  0.15141384    -0.19500
C667        C  0.96029200  0.27208943  0.16150737     0.19700
C668        C  0.95687400  0.29787750  0.16651972     0.01800
C669        C  0.97174425  0.30847380  0.17653814    -0.14200
C670        C  0.98465488  0.29086679  0.18197067    -0.12000
C671        C  0.98254052  0.26128351  0.17779473     0.01300
C672        C  0.97491920  0.25559571  0.16692009    -0.24100
H673        H  0.90710646  0.36439058  0.16480584     0.09400
H674        H  0.94092409  0.34575565  0.17371909     0.12900
H675        H  0.89469184  0.30012177  0.13849602     0.11600
H676        H  0.91848869  0.26470428  0.13868409     0.12800
H677        H  0.94928645  0.24165518  0.14748933     0.11900
H678        H  0.97270123  0.32961017  0.18052395     0.08900
H679        H  0.99479772  0.29989287  0.18975237     0.12200
H680        H  0.97552953  0.23476892  0.16317510     0.14100
C681        C  0.87069822  0.53271451  0.14929725    -0.01400
C682        C  0.89778169  0.53193978  0.15410659    -0.09400
C683        C  0.89957313  0.50203737  0.15453522    -0.18300
C684        C  0.87374570  0.47112134  0.15046850     0.04100
C685        C  0.84555728  0.47137271  0.14627838     0.18300
C686        C  0.84522161  0.50178320  0.14519318    -0.19700
C687        C  0.81797401  0.44130676  0.14288009    -0.21000
C688        C  0.81791682  0.41101751  0.14337969    -0.19500
C689        C  0.84613404  0.41004988  0.14673651     0.19700
C690        C  0.87473496  0.44010010  0.15016580     0.01800
C691        C  0.90342687  0.43795218  0.15243689    -0.14200
C692        C  0.90377912  0.40759503  0.15109010    -0.12000
C693        C  0.87499955  0.37719015  0.14815737     0.01300
C694        C  0.84624810  0.37939890  0.14604734    -0.24100
H695        H  0.91873987  0.55498456  0.15700047     0.09400
H696        H  0.92146076  0.50366661  0.15808053     0.12900
H697        H  0.82503267  0.50141586  0.14079647     0.11600
H698        H  0.79612609  0.44117724  0.13982622     0.12800
H699        H  0.79600942  0.38832683  0.14069039     0.11900
H700        H  0.92655577  0.46001246  0.15461265     0.08900
H701        H  0.92729755  0.40837703  0.15192315     0.12200
H702        H  0.82421608  0.35768300  0.14297402     0.14100
C703        C  0.01440864  0.73635916  0.24904701    -0.01400
C704        C  0.00979198  0.76414013  0.24813335    -0.09400
C705        C  0.01175240  0.77904618  0.23823581    -0.18300
C706        C  0.01798130  0.76615081  0.22892205     0.04100
C707        C  0.02552789  0.73990081  0.23008973     0.18300
C708        C  0.02417981  0.72572156  0.24008829    -0.19700
C709        C  0.03199348  0.72619632  0.22118485    -0.21000
C710        C  0.02813829  0.73579347  0.21107366    -0.19500
C711        C  0.01808440  0.75957726  0.20964385     0.19700
C712        C  0.01462889  0.77646549  0.21847978     0.01800
C713        C  0.00675092  0.80194375  0.21642283    -0.14200
C714        C  0.99899805  0.80758580  0.20615934    -0.12000
C715        C  0.99709650  0.78695954  0.19767644     0.01300
C716        C  0.01007108  0.76541500  0.19943329    -0.24100
H717        H  0.00253706  0.77302799  0.25497300     0.09400
H718        H  0.00637350  0.79928103  0.23804005     0.12900
H719        H  0.02825819  0.70452478  0.24075156     0.11600
H720        H  0.03835158  0.70661628  0.22203406     0.12800
H721        H  0.03164092  0.72344242  0.20433584     0.11900
H722        H  0.00590868  0.81753371  0.22260455     0.08900
H723        H  0.99276077  0.82710504  0.20495158     0.12200
H724        H  0.01296552  0.75208425  0.19286916     0.14100
C725        C  0.89618781  0.59859555  0.15239379    -0.01400
C726        C  0.89263229  0.59864269  0.16346066    -0.09400
C727        C  0.90829288  0.62876610  0.16931925    -0.18300
C728        C  0.92834365  0.66061755  0.16435394     0.04100
C729        C  0.93353995  0.66072485  0.15331323     0.18300
C730        C  0.91714823  0.63047258  0.14749924    -0.19700
C731        C  0.95429583  0.69130335  0.14802665    -0.21000
C732        C  0.96992728  0.72181402  0.15346182    -0.19500
C733        C  0.96434495  0.72301499  0.16430046     0.19700
C734        C  0.94289475  0.69239091  0.16983537     0.01800
C735        C  0.93561444  0.69509620  0.18046929    -0.14200
C736        C  0.94906988  0.72646211  0.18538192    -0.12000
C737        C  0.97217031  0.75694064  0.18026424     0.01300
C738        C  0.97924681  0.75468491  0.16954265    -0.24100
H739        H  0.87640645  0.57521512  0.16757197     0.09400
H740        H  0.90399775  0.62641827  0.17774952     0.12900
H741        H  0.91954019  0.63261784  0.13898081     0.11600
H742        H  0.95855720  0.69164699  0.13958254     0.12800
H743        H  0.98586184  0.74478212  0.14907807     0.11900
H744        H  0.91855285  0.67338248  0.18510117     0.08900
H745        H  0.94154822  0.72684122  0.19346088     0.12200
H746        H  0.99525534  0.77755006  0.16513808     0.14100
C747        C  0.24033784  0.96065924  0.24821740    -0.01400
C748        C  0.25489899  0.95322845  0.23975480    -0.09400
C749        C  0.24569201  0.95467695  0.22934984    -0.18300
C750        C  0.22165967  0.96400632  0.22706107     0.04100
C751        C  0.20407942  0.96745917  0.23569484     0.18300
C752        C  0.21336109  0.96549707  0.24619420    -0.19700
C753        C  0.17909652  0.97533501  0.23377585    -0.21000
C754        C  0.17328481  0.98280324  0.22355057    -0.19500
C755        C  0.19252582  0.98286258  0.21502648     0.19700
C756        C  0.21606051  0.97220697  0.21661110     0.01800
C757        C  0.23410593  0.97171870  0.20773616    -0.14200
C758        C  0.23100245  0.98391108  0.19794221    -0.12000
C759        C  0.21041738  0.99799480  0.19651957     0.01300
C760        C  0.18924708  0.99463529  0.20500858    -0.24100
H761        H  0.27525056  0.94859101  0.24111371     0.09400
H762        H  0.25912531  0.95006110  0.22328954     0.12900
H763        H  0.20154952  0.97070760  0.25271561     0.11600
H764        H  0.16498475  0.97722009  0.24027981     0.12800
H765        H  0.15469885  0.99012485  0.22238615     0.11900
H766        H  0.25123537  0.96245507  0.20809195     0.08900
H767        H  0.24502428  0.98206902  0.19142602     0.12200
H768        H  0.17098320  0.00242269  0.20391355     0.14100
C769        C  0.17436635  0.97999961  0.18108516    -0.01400
C770        C  0.17350977  0.94965518  0.17853528    -0.09400
C771        C  0.14326976  0.91863747  0.17771996    -0.18300
C772        C  0.11210217  0.91620257  0.17961198     0.04100
C773        C  0.11270097  0.94676896  0.18184494     0.18300
C774        C  0.14308155  0.97764266  0.18255477    -0.19700
C775        C  0.08292668  0.94631662  0.18391368    -0.21000
C776        C  0.05266766  0.91621245  0.18411543    -0.19500
C777        C  0.05102212  0.88541581  0.18224445     0.19700
C778        C  0.08050934  0.88477292  0.17981743     0.01800
C779        C  0.07690456  0.85261126  0.17815411    -0.14200
C780        C  0.04577309  0.82263328  0.17930500    -0.12000
C781        C  0.01648613  0.82306248  0.18196394     0.01300
C782        C  0.02004051  0.85528280  0.18330436    -0.24100
H783        H  0.19659460  0.94951754  0.17775218     0.09400
H784        H  0.14501996  0.89663736  0.17598178     0.12900
H785        H  0.14201977  0.99949492  0.18510133     0.11600
H786        H  0.08307616  0.96947044  0.18561755     0.12800
H787        H  0.03033986  0.91700864  0.18596509     0.11900
H788        H  0.09805554  0.84988739  0.17631706     0.08900
H789        H  0.04495304  0.79876438  0.17863619     0.12200
H790        H  0.99900389  0.85727002  0.18594988     0.14100
C791        C  0.39990289  0.09694314  0.15272354    -0.01400
C792        C  0.37003415  0.07554690  0.14714983    -0.09400
C793        C  0.33879206  0.05872897  0.15208845    -0.18300
C794        C  0.33501481  0.06313903  0.16289934     0.04100
C795        C  0.36466964  0.08382188  0.16872696     0.18300
C796        C  0.39643698  0.09986694  0.16370705    -0.19700
C797        C  0.36224674  0.08982674  0.17944687    -0.21000
C798        C  0.33128778  0.07709805  0.18433403    -0.19500
C799        C  0.30166943  0.05724765  0.17874220     0.19700
C800        C  0.30291956  0.04905203  0.16803440     0.01800
C801        C  0.27195216  0.02771206  0.16297601    -0.14200
C802        C  0.24125410  0.01491306  0.16837579    -0.12000
C803        C  0.24000770  0.02324886  0.17899146     0.01300
C804        C  0.27082550  0.04566384  0.18386314    -0.24100
H805        H  0.36967271  0.07348306  0.13864313     0.09400
H806        H  0.31766918  0.04389735  0.14706543     0.12900
H807        H  0.41834580  0.11684175  0.16820960     0.11600
H808        H  0.38447557  0.10534177  0.18402907     0.12800
H809        H  0.33051741  0.08300724  0.19258133     0.11900
H810        H  0.27071210  0.02026963  0.15483930     0.08900
H811        H  0.21847331  0.99901556  0.16412108     0.12200
H812        H  0.27078781  0.05340234  0.19194470     0.14100
C813        C  0.20874857  0.25123050  0.19645957    -0.01400
C814        C  0.22971497  0.28625921  0.19777704    -0.09400
C815        C  0.23506154  0.30113847  0.20766372    -0.18300
C816        C  0.21929844  0.28169790  0.21676208     0.04100
C817        C  0.19483139  0.24729152  0.21533109     0.18300
C818        C  0.18880795  0.23280908  0.20517899    -0.19700
C819        C  0.17769088  0.22726873  0.22411466    -0.21000
C820        C  0.18626672  0.23999430  0.23434066    -0.19500
C821        C  0.21206746  0.27309397  0.23601885     0.19700
C822        C  0.22800766  0.29483138  0.22722597     0.01800
C823        C  0.25356199  0.32817209  0.22929621    -0.14200
C824        C  0.26502610  0.33838573  0.23955677    -0.12000
C825        C  0.25124249  0.31603976  0.24811790     0.01300
C826        C  0.22354367  0.28397338  0.24638355    -0.24100
H827        H  0.24273530  0.30259595  0.19112276     0.09400
H828        H  0.25226939  0.32784865  0.20791041     0.12900
H829        H  0.17002961  0.20656439  0.20418403     0.11600
H830        H  0.15855679  0.20116699  0.22310381     0.12800
H831        H  0.17356333  0.22339402  0.24099401     0.11900
H832        H  0.26640461  0.34656679  0.22313456     0.08900
H833        H  0.28611049  0.36344221  0.24070914     0.12200
H834        H  0.21258497  0.26655577  0.25298758     0.14100
C835        C  0.17247531  0.23327651  0.18093820    -0.01400
C836        C  0.14153113  0.20273695  0.18103220    -0.09400
C837        C  0.11108025  0.20187474  0.17988344    -0.18300
C838        C  0.10948586  0.23169102  0.17910382     0.04100
C839        C  0.14018815  0.26265645  0.17894218     0.18300
C840        C  0.17100723  0.26313965  0.17942377    -0.19700
C841        C  0.13981459  0.29302280  0.17895558    -0.21000
C842        C  0.10986685  0.29319335  0.17971986    -0.19500
C843        C  0.07914889  0.26301267  0.18002892     0.19700
C844        C  0.07856024  0.23193906  0.17916867     0.01800
C845        C  0.04699895  0.20252233  0.17840827    -0.14200
C846        C  0.01743460  0.20356988  0.17933960    -0.12000
C847        C  0.01757317  0.23365977  0.18174221     0.01300
C848        C  0.04911297  0.26363512  0.18142280    -0.24100
H849        H  0.14002795  0.17897123  0.18276589     0.09400
H850        H  0.08888888  0.17743676  0.18043194     0.12900
H851        H  0.19394428  0.28717355  0.17956242     0.11600
H852        H  0.16296341  0.31690154  0.17883837     0.12800
H853        H  0.11078498  0.31718858  0.18015519     0.11900
H854        H  0.04443389  0.17824540  0.17690606     0.08900
H855        H  0.99454744  0.18008229  0.17829356     0.12200
H856        H  0.05037352  0.28754680  0.18269189     0.14100
C857        C  0.20195405  0.19937716  0.18588371    -0.01400
C858        C  0.19364927  0.17993467  0.17659412    -0.09400
C859        C  0.19292957  0.14905932  0.17627847    -0.18300
C860        C  0.20195247  0.13656459  0.18518055     0.04100
C861        C  0.21197053  0.15671170  0.19442916     0.18300
C862        C  0.21220403  0.18758559  0.19467697    -0.19700
C863        C  0.22239777  0.14626225  0.20336604    -0.21000
C864        C  0.22294012  0.11622231  0.20335344    -0.19500
C865        C  0.21297619  0.09555743  0.19441434     0.19700
C866        C  0.20231103  0.10537759  0.18518897     0.01800
C867        C  0.19314293  0.08383153  0.17634673    -0.14200
C868        C  0.19458694  0.05406674  0.17666134    -0.12000
C869        C  0.20410641  0.04351668  0.18586946     0.01300
C870        C  0.21415554  0.06538720  0.19464377    -0.24100
H871        H  0.18748717  0.18881338  0.16945160     0.09400
H872        H  0.18572294  0.13579647  0.16887024     0.12900
H873        H  0.22185815  0.20291883  0.20166965     0.11600
H874        H  0.23030845  0.16151962  0.21044385     0.12800
H875        H  0.23125029  0.10909557  0.21041899     0.11900
H876        H  0.18499888  0.08944788  0.16901364     0.08900
H877        H  0.18797331  0.03884674  0.16959249     0.12200
H878        H  0.22399223  0.05973047  0.20162615     0.14100
C879        C  0.42631504  0.31069476  0.14506689    -0.01400
C880        C  0.39963162  0.28072127  0.14101086    -0.09400
C881        C  0.39906655  0.25006674  0.14156504    -0.18300
C882        C  0.42494773  0.24744498  0.14649606     0.04100
C883        C  0.45098771  0.27690537  0.15124025     0.18300
C884        C  0.45139241  0.30789382  0.15056799    -0.19700
C885        C  0.47642168  0.27516280  0.15666879    -0.21000
C886        C  0.47665671  0.24493858  0.15739324    -0.19500
C887        C  0.45187764  0.21567560  0.15250851     0.19700
C888        C  0.42577231  0.21662461  0.14695215     0.01800
C889        C  0.40178500  0.18674056  0.14199364    -0.14200
C890        C  0.40427786  0.15771979  0.14218731    -0.12000
C891        C  0.43075758  0.15665421  0.14728041     0.01300
C892        C  0.45337507  0.18565440  0.15299970    -0.24100
H893        H  0.37910796  0.28115654  0.13711381     0.09400
H894        H  0.37776464  0.22877577  0.13809599     0.12900
H895        H  0.47118030  0.32958632  0.15450352     0.11600
H896        H  0.49634132  0.29737775  0.16038734     0.12800
H897        H  0.49676980  0.24463464  0.16163857     0.11900
H898        H  0.38112333  0.18511917  0.13763125     0.08900
H899        H  0.38562634  0.13595845  0.13796125     0.12200
H900        H  0.47254292  0.18534820  0.15777298     0.14100
C901        C  0.23811651  0.25618598  0.17909036    -0.01400
C902        C  0.26817482  0.26340922  0.18415854    -0.09400
C903        C  0.29912842  0.28148798  0.17919713    -0.18300
C904        C  0.30182458  0.29171940  0.16855123     0.04100
C905        C  0.27165360  0.28304830  0.16309901     0.18300
C906        C  0.24036358  0.26629100  0.16841998    -0.19700
C907        C  0.27290599  0.29014936  0.15225698    -0.21000
C908        C  0.30300043  0.30472288  0.14673364    -0.19500
C909        C  0.33306495  0.31390181  0.15193855     0.19700
C910        C  0.33315644  0.30857192  0.16297619     0.01800
C911        C  0.36449635  0.31946313  0.16782823    -0.14200
C912        C  0.39409983  0.33315657  0.16184751    -0.12000
C913        C  0.39414348  0.33717998  0.15078312     0.01300
C914        C  0.36277457  0.32718010  0.14602398    -0.24100
H915        H  0.26776429  0.25520710  0.19224527     0.09400
H916        H  0.32048108  0.28593087  0.18380185     0.12900
H917        H  0.21780171  0.25989140  0.16411978     0.11600
H918        H  0.25029484  0.28349646  0.14793756     0.12800
H919        H  0.30272786  0.30882082  0.13828003     0.11900
H920        H  0.36683956  0.31721623  0.17624697     0.08900
H921        H  0.41704551  0.33931162  0.16586054     0.12200
H922        H  0.36040741  0.32733220  0.13752013     0.14100
C923        C  0.84233329  0.31324734  0.14375570    -0.01400
C924        C  0.83219847  0.29082430  0.13514242    -0.09400
C925        C  0.80174790  0.26067508  0.13510756    -0.18300
C926        C  0.77991365  0.25051690  0.14386198     0.04100
C927        C  0.79046524  0.27178716  0.15285244     0.18300
C928        C  0.82135284  0.30245339  0.15276623    -0.19700
C929        C  0.77015754  0.26209617  0.16189351    -0.21000
C930        C  0.73955722  0.23202452  0.16212996    -0.19500
C931        C  0.72819649  0.21077179  0.15331140     0.19700
C932        C  0.74830628  0.21975665  0.14406883     0.01800
C933        C  0.73608347  0.19731849  0.13546553    -0.14200
C934        C  0.70538494  0.16747072  0.13596137    -0.12000
C935        C  0.68438390  0.15866824  0.14490406     0.01300
C936        C  0.69699901  0.18047591  0.15369950    -0.24100
H937        H  0.84820000  0.29569303  0.12838067     0.09400
H938        H  0.79637622  0.24554639  0.12811712     0.12900
H939        H  0.82918592  0.31813292  0.15975176     0.11600
H940        H  0.77798143  0.27791474  0.16884529     0.12800
H941        H  0.72458554  0.22542080  0.16926227     0.11900
H942        H  0.74990840  0.20176069  0.12822406     0.08900
H943        H  0.69900444  0.15077719  0.12929952     0.12200
H944        H  0.68236068  0.17369514  0.16091061     0.14100
C945        C  0.62214569  0.12818922  0.15050353    -0.01400
C946        C  0.62123990  0.15779927  0.14801258    -0.09400
C947        C  0.59207537  0.15949683  0.14876904    -0.18300
C948        C  0.56155406  0.13141308  0.15197156     0.04100
C949        C  0.56212557  0.10201526  0.15514942     0.18300
C950        C  0.59179380  0.10032489  0.15416115    -0.19700
C951        C  0.53261422  0.07405225  0.15888326    -0.21000
C952        C  0.50270525  0.07451800  0.15931297    -0.19500
C953        C  0.50087438  0.10248694  0.15564998     0.19700
C954        C  0.53038471  0.13115950  0.15182179     0.01800
C955        C  0.52706152  0.15746906  0.14732328    -0.14200
C956        C  0.49603278  0.15514353  0.14639857    -0.12000
C957        C  0.46643206  0.12771876  0.15054392     0.01300
C958        C  0.46955366  0.10128276  0.15523357    -0.24100
H959        H  0.64278530  0.17963649  0.14470036     0.09400
H960        H  0.59412736  0.18317957  0.14656345     0.12900
H961        H  0.59062038  0.07653130  0.15566984     0.11600
H962        H  0.53258340  0.05147370  0.16143869     0.12800
H963        H  0.48054271  0.05229580  0.16219683     0.11900
H964        H  0.54776109  0.17935954  0.14375491     0.08900
H965        H  0.49508822  0.17467639  0.14183697     0.12200
H966        H  0.44730262  0.07866354  0.15784155     0.14100
C967        C  0.74988130  0.00929501  0.19774337    -0.01400
C968        C  0.75320143  0.03919248  0.20197127    -0.09400
C969        C  0.73958683  0.03957705  0.21168958    -0.18300
C970        C  0.72174401  0.00991609  0.21775943     0.04100
C971        C  0.72159512  0.98055439  0.21428672     0.18300
C972        C  0.73598803  0.98052632  0.20443952    -0.19700
C973        C  0.70628256  0.95124592  0.22056631    -0.21000
C974        C  0.69056120  0.95043748  0.23007008    -0.19500
C975        C  0.68889191  0.97859829  0.23339245     0.19700
C976        C  0.70412412  0.00856077  0.22715395     0.01800
C977        C  0.70024415  0.03571566  0.23038309    -0.14200
C978        C  0.68333850  0.03386843  0.23964270    -0.12000
C979        C  0.66951874  0.00500781  0.24607886     0.01300
C980        C  0.67202766  0.97714655  0.24286003    -0.24100
H981        H  0.76453493  0.06229209  0.19735757     0.09400
H982        H  0.74306332  0.06354389  0.21413330     0.12900
H983        H  0.73504845  0.95761686  0.20200336     0.11600
H984        H  0.70628054  0.92872827  0.21808311     0.12800
H985        H  0.67903692  0.92741016  0.23473748     0.11900
H986        H  0.70952438  0.05867257  0.22584451     0.08900
H987        H  0.68142811  0.05557989  0.24182793     0.12200
H988        H  0.66117205  0.95455851  0.24774035     0.14100
C989        C  0.79537143  0.04176671  0.18483688    -0.01400
C990        C  0.82155438  0.04530052  0.19145624    -0.09400
C991        C  0.85306693  0.07478545  0.19147662    -0.18300
C992        C  0.85975914  0.10300198  0.18511846     0.04100
C993        C  0.83332245  0.10019754  0.17875117     0.18300
C994        C  0.80210506  0.07050712  0.17873888    -0.19700
C995        C  0.83762768  0.12754261  0.17258147    -0.21000
C996        C  0.86753148  0.15776692  0.17264000    -0.19500
C997        C  0.89426280  0.16150420  0.17876055     0.19700
C998        C  0.89108553  0.13428348  0.18503533     0.01800
C999        C  0.91909622  0.14015864  0.19109555    -0.14200
C1000       C  0.94882036  0.17157970  0.19081506    -0.12000
C1001       C  0.95256973  0.19858338  0.18432649     0.01300
C1002       C  0.92383184  0.19287319  0.17872879    -0.24100
H1003       H  0.81737375  0.02497893  0.19680371     0.09400
H1004       H  0.87153337  0.07509882  0.19672403     0.12900
H1005       H  0.78282841  0.07150404  0.17434229     0.11600
H1006       H  0.81753473  0.12568235  0.16772617     0.12800
H1007       H  0.86975904  0.17844380  0.16782125     0.11900
H1008       H  0.91862272  0.12097511  0.19619167     0.08900
H1009       H  0.96917804  0.17501657  0.19583848     0.12200
H1010       H  0.92284426  0.21305826  0.17472072     0.14100
C1011       C  0.66264939  0.10179442  0.15208570    -0.01400
C1012       C  0.68500381  0.09429387  0.14684595    -0.09400
C1013       C  0.69719825  0.07505146  0.15150307    -0.18300
C1014       C  0.68789131  0.06202124  0.16182024     0.04100
C1015       C  0.66588547  0.06974152  0.16737208     0.18300
C1016       C  0.65362133  0.08952000  0.16254467    -0.19700
C1017       C  0.65666402  0.05793575  0.17777781    -0.21000
C1018       C  0.66951426  0.03978088  0.18282844    -0.19500
C1019       C  0.69197023  0.03274207  0.17763517     0.19700
C1020       C  0.70064496  0.04270881  0.16695353     0.01800
C1021       C  0.72185326  0.03297793  0.16197319    -0.14200
C1022       C  0.73733644  0.01830039  0.16778633    -0.12000
C1023       C  0.73341187  0.01403907  0.17885240     0.01300
C1024       C  0.70698835  0.01722225  0.18326104    -0.24100
H1025       H  0.69298847  0.10313460  0.13883993     0.09400
H1026       H  0.71430530  0.07112787  0.14683747     0.12900
H1027       H  0.63770669  0.09575192  0.16703646     0.11600
H1028       H  0.63984658  0.06331403  0.18212779     0.12800
H1029       H  0.66248320  0.03194526  0.19098309     0.11900
H1030       H  0.72788241  0.03750243  0.15366668     0.08900
H1031       H  0.75537446  0.01385359  0.16382627     0.12200
H1032       H  0.69900295  0.00959030  0.19133774     0.14100
C1033       C  0.68226860  0.56336697  0.14516030    -0.01400
C1034       C  0.68399854  0.53714377  0.15049013    -0.09400
C1035       C  0.71392038  0.53664395  0.15117804    -0.18300
C1036       C  0.74383886  0.56273799  0.14672462     0.04100
C1037       C  0.74243767  0.58962036  0.14159273     0.18300
C1038       C  0.71239047  0.59004917  0.14108309    -0.19700
C1039       C  0.77107451  0.61600850  0.13691090    -0.21000
C1040       C  0.80099673  0.61605803  0.13704863    -0.19500
C1041       C  0.80334675  0.58999993  0.14202317     0.19700
C1042       C  0.77506296  0.56327492  0.14711944     0.01800
C1043       C  0.77962122  0.53878306  0.15251063    -0.14200
C1044       C  0.81045426  0.54003633  0.15243170    -0.12000
C1045       C  0.83779144  0.56476363  0.14654809     0.01300
C1046       C  0.83394435  0.59062260  0.14186127    -0.24100
H1047       H  0.66236043  0.51692729  0.15435261     0.09400
H1048       H  0.71288089  0.51540066  0.15523566     0.12900
H1049       H  0.71217271  0.61110254  0.13722770     0.11600
H1050       H  0.77024531  0.63663430  0.13298654     0.12800
H1051       H  0.82251734  0.63670000  0.13321535     0.11900
H1052       H  0.75988247  0.51862844  0.15701956     0.08900
H1053       H  0.81262335  0.52145950  0.15711688     0.12200
H1054       H  0.85493462  0.61114109  0.13778876     0.14100
C1055       C  0.61786409  0.53128236  0.14743750    -0.01400
C1056       C  0.59248498  0.52836481  0.15424271    -0.09400
C1057       C  0.56149163  0.49787135  0.15506624    -0.18300
C1058       C  0.55447254  0.46906434  0.14902634     0.04100
C1059       C  0.58053434  0.47188448  0.14245997     0.18300
C1060       C  0.61114347  0.50217201  0.14176381    -0.19700
C1061       C  0.57576574  0.44477120  0.13624084    -0.21000
C1062       C  0.54538524  0.41502309  0.13614271    -0.19500
C1063       C  0.51874692  0.41139062  0.14225763     0.19700
C1064       C  0.52265529  0.43793132  0.14891549     0.01800
C1065       C  0.49423391  0.43212248  0.15480943    -0.14200
C1066       C  0.46323610  0.40177800  0.15383362    -0.12000
C1067       C  0.45941130  0.37580183  0.14703841     0.01300
C1068       C  0.48794731  0.38143691  0.14140263    -0.24100
H1069       H  0.59581095  0.55002145  0.15858826     0.09400
H1070       H  0.54302452  0.49768286  0.16026491     0.12900
H1071       H  0.62980131  0.50363375  0.13631224     0.11600
H1072       H  0.59560173  0.44677518  0.13123998     0.12800
H1073       H  0.54254832  0.39481510  0.13107592     0.11900
H1074       H  0.49518118  0.45107544  0.16002085     0.08900
H1075       H  0.44205523  0.39947838  0.15809093     0.12200
H1076       H  0.48577192  0.36235371  0.13593948     0.14100
C1077       C  0.74471717  0.78129141  0.19700441    -0.01400
C1078       C  0.76151254  0.80239086  0.20562548    -0.09400
C1079       C  0.74784665  0.79463652  0.21585925    -0.18300
C1080       C  0.71583210  0.76651322  0.21773295     0.04100
C1081       C  0.69684417  0.74870802  0.20877539     0.18300
C1082       C  0.71105681  0.75643918  0.19863519    -0.19700
C1083       C  0.66396573  0.72247271  0.20998440    -0.21000
C1084       C  0.65015294  0.71199947  0.21999408    -0.19500
C1085       C  0.66908793  0.72707085  0.22904240     0.19700
C1086       C  0.70201631  0.75497126  0.22809298     0.01800
C1087       C  0.72015371  0.76867626  0.23754035    -0.14200
C1088       C  0.70673490  0.75405270  0.24742970    -0.12000
C1089       C  0.67482450  0.72561082  0.24822024     0.01300
C1090       C  0.65577955  0.71310777  0.23901235    -0.24100
H1091       H  0.78620952  0.82394990  0.20453454     0.09400
H1092       H  0.76289986  0.81092191  0.22215901     0.12900
H1093       H  0.69563850  0.74235498  0.19201052     0.11600
H1094       H  0.64910476  0.70928440  0.20314582     0.12800
H1095       H  0.62492601  0.69098238  0.22066514     0.11900
H1096       H  0.74531867  0.78963684  0.23747734     0.08900
H1097       H  0.72204375  0.76404580  0.25442495     0.12200
H1098       H  0.63106640  0.69111935  0.23953548     0.14100
C1099       C  0.79754723  0.79295142  0.18634582    -0.01400
C1100       C  0.81728080  0.80234990  0.17708826    -0.09400
C1101       C  0.84862004  0.80469212  0.17687733    -0.18300
C1102       C  0.86140588  0.79651217  0.18588304     0.04100
C1103       C  0.84133518  0.78615625  0.19515485     0.18300
C1104       C  0.81007061  0.78415572  0.19527630    -0.19700
C1105       C  0.85205399  0.77675317  0.20424884    -0.21000
C1106       C  0.88191485  0.77671846  0.20429722    -0.19500
C1107       C  0.90221316  0.78637429  0.19528321     0.19700
C1108       C  0.89262389  0.79691880  0.18597991     0.01800
C1109       C  0.91428648  0.80637118  0.17715667    -0.14200
C1110       C  0.94375689  0.80492344  0.17754558    -0.12000
C1111       C  0.95364845  0.79483958  0.18678584     0.01300
C1112       C  0.93167392  0.78470321  0.19552607    -0.24100
H1113       H  0.80815460  0.80781685  0.16988452     0.09400
H1114       H  0.86199333  0.81227201  0.16947319     0.12900
H1115       H  0.79493233  0.77378800  0.20228778     0.11600
H1116       H  0.83695565  0.76886552  0.21136908     0.12800
H1117       H  0.88907987  0.76881369  0.21145195     0.11900
H1118       H  0.90889203  0.81464810  0.16979177     0.08900
H1119       H  0.95904606  0.81162895  0.17049032     0.12200
H1120       H  0.93649648  0.77408960  0.20250613     0.14100
C1121       C  0.76095453  0.81975180  0.18172086    -0.01400
C1122       C  0.73035801  0.81890549  0.18037956    -0.09400
C1123       C  0.72844357  0.84859290  0.17968412    -0.18300
C1124       C  0.75726770  0.88095837  0.18012457     0.04100
C1125       C  0.78833975  0.88210401  0.18061388     0.18300
C1126       C  0.78990329  0.85217917  0.18160401    -0.19700
C1127       C  0.81792103  0.91333593  0.18050149    -0.21000
C1128       C  0.81737003  0.94336506  0.18010026    -0.19500
C1129       C  0.78721831  0.94331332  0.18027790     0.19700
C1130       C  0.75667017  0.91220438  0.18035332     0.01800
C1131       C  0.72721204  0.91403432  0.18101317    -0.14200
C1132       C  0.72829680  0.94514966  0.18223433    -0.12000
C1133       C  0.75867344  0.97611979  0.18270531     0.01300
C1134       C  0.78781220  0.97438810  0.18082294    -0.24100
H1135       H  0.70735564  0.79493924  0.18053431     0.09400
H1136       H  0.70396095  0.84554293  0.17899819     0.12900
H1137       H  0.81404456  0.85485787  0.18296749     0.11600
H1138       H  0.84180765  0.91459763  0.18077862     0.12800
H1139       H  0.84085788  0.96692385  0.18007996     0.11900
H1140       H  0.70298209  0.89159373  0.18108622     0.08900
H1141       H  0.70507467  0.94485981  0.18330884     0.12200
H1142       H  0.81170509  0.99701354  0.18013474     0.14100
C1143       C  0.74194889  0.75442844  0.17921962     0.02200
C1144       C  0.73846615  0.72441399  0.18366317    -0.09400
C1145       C  0.72033010  0.69316224  0.17875048    -0.18300
C1146       C  0.70566497  0.69010040  0.16876708     0.04100
C1147       C  0.71059813  0.72030300  0.16380965     0.18300
C1148       C  0.72796383  0.75190216  0.16909340    -0.19700
C1149       C  0.69876412  0.71871182  0.15349305    -0.21000
C1150       C  0.68346443  0.68836851  0.14794327    -0.19500
C1151       C  0.67806406  0.65824259  0.15268587     0.19700
C1152       C  0.68772120  0.65839045  0.16332224     0.01800
C1153       C  0.67945036  0.62686285  0.16794217    -0.14200
C1154       C  0.66437422  0.59694745  0.16202070    -0.12000
C1155       C  0.65733553  0.59687270  0.15116303     0.01300
C1156       C  0.66418333  0.62830225  0.14669531    -0.24100
H1157       H  0.74925349  0.72497637  0.19131438     0.09400
H1158       H  0.71899847  0.67184530  0.18285351     0.12900
H1159       H  0.73115891  0.77440741  0.16519185     0.11600
H1160       H  0.70228480  0.74131601  0.14955108     0.12800
H1161       H  0.67577128  0.68848794  0.13984565     0.11900
H1162       H  0.68458253  0.62460298  0.17614246     0.08900
H1163       H  0.65994747  0.57383304  0.16582263     0.12200
H1164       H  0.66096131  0.63072706  0.13834004     0.14100
C1165       C  0.95065181  0.36947204  0.08043995    -0.01400
C1166       C  0.97370781  0.37935558  0.08870087    -0.09400
C1167       C  0.96479025  0.38215711  0.09900311    -0.18300
C1168       C  0.93212876  0.37475384  0.10142302     0.04100
C1169       C  0.90956399  0.36735896  0.09288197     0.18300
C1170       C  0.91905485  0.36502335  0.08248142    -0.19700
C1171       C  0.87714781  0.36056687  0.09486778    -0.21000
C1172       C  0.86609271  0.35910546  0.10520550    -0.19500
C1173       C  0.88704088  0.36393899  0.11381274     0.19700
C1174       C  0.92057105  0.37264037  0.11203107     0.01800
C1175       C  0.94070176  0.37750294  0.12097119    -0.14200
C1176       C  0.92725084  0.37050286  0.13114178    -0.12000
C1177       C  0.89307053  0.35797014  0.13288488     0.01300
C1178       C  0.87419168  0.35841211  0.12418548    -0.24100
H1179       H  0.99840761  0.38335101  0.08729959     0.09400
H1180       H  0.98372284  0.38891947  0.10493608     0.12900
H1181       H  0.90108032  0.35748708  0.07611526     0.11600
H1182       H  0.85989936  0.35531656  0.08840157     0.12800
H1183       H  0.84055010  0.35275151  0.10648581     0.11900
H1184       H  0.96680043  0.38579025  0.12038950     0.08900
H1185       H  0.94390077  0.37435659  0.13765911     0.12200
H1186       H  0.84849723  0.35161001  0.12539123     0.14100
C1187       C  0.05486637  0.32608086  0.05487813    -0.01400
C1188       C  0.08523651  0.35644718  0.05471695    -0.09400
C1189       C  0.11530271  0.35673970  0.05528756    -0.18300
C1190       C  0.11604584  0.32640908  0.05600033     0.04100
C1191       C  0.08515507  0.29554612  0.05593000     0.18300
C1192       C  0.05497425  0.29565027  0.05550589    -0.19700
C1193       C  0.08461794  0.26480807  0.05616581    -0.21000
C1194       C  0.11413404  0.26404401  0.05637311    -0.19500
C1195       C  0.14491442  0.29398735  0.05664543     0.19700
C1196       C  0.14631169  0.32561447  0.05664061     0.01800
C1197       C  0.17795749  0.35506525  0.05736300    -0.14200
C1198       C  0.20694540  0.35319886  0.05781762    -0.12000
C1199       C  0.20550965  0.32207319  0.05754998     0.01300
C1200       C  0.17436906  0.29251465  0.05697818    -0.24100
H1201       H  0.08582392  0.38027623  0.05415400     0.09400
H1202       H  0.13751909  0.38114874  0.05500081     0.12900
H1203       H  0.03155678  0.27199698  0.05555311     0.11600
H1204       H  0.06120542  0.24117886  0.05606558     0.12800
H1205       H  0.11286378  0.23983507  0.05641857     0.11900
H1206       H  0.18120269  0.37995620  0.05769973     0.08900
H1207       H  0.23068546  0.37636096  0.05831038     0.12200
H1208       H  0.17301753  0.26826546  0.05681343     0.14100
C1209       C  0.35947965  0.35698355  0.08137890    -0.01400
C1210       C  0.35777240  0.37714758  0.08932111    -0.09400
C1211       C  0.37400194  0.38108475  0.09901825    -0.18300
C1212       C  0.39143666  0.36380322  0.10117848     0.04100
C1213       C  0.39404641  0.34445425  0.09291065     0.18300
C1214       C  0.37908756  0.34216797  0.08305487    -0.19700
C1215       C  0.40958927  0.32556175  0.09473671    -0.21000
C1216       C  0.42030323  0.32332213  0.10482897    -0.19500
C1217       C  0.41680393  0.34087561  0.11325572     0.19700
C1218       C  0.40424437  0.36296320  0.11142216     0.01800
C1219       C  0.40443370  0.38257152  0.11999286    -0.14200
C1220       C  0.41338327  0.37775247  0.13015247    -0.12000
C1221       C  0.42064984  0.35197131  0.13231113     0.01300
C1222       C  0.42483991  0.33560328  0.12356204    -0.24100
H1223       H  0.34281278  0.38889082  0.08818008     0.09400
H1224       H  0.37071978  0.39604841  0.10489799     0.12900
H1225       H  0.38035185  0.32631609  0.07697458     0.11600
H1226       H  0.41187549  0.31095893  0.08844200     0.12800
H1227       H  0.43062425  0.30705609  0.10610326     0.11900
H1228       H  0.39757883  0.40164246  0.11908373     0.08900
H1229       H  0.41242163  0.39275666  0.13656277     0.12200
H1230       H  0.43405428  0.31838089  0.12468773     0.14100
C1231       C  0.28633599  0.07571158  0.05906598    -0.01400
C1232       C  0.27386919  0.08274483  0.04990895    -0.09400
C1233       C  0.26572115  0.10811440  0.04980723    -0.18300
C1234       C  0.27043467  0.12786815  0.05888075     0.04100
C1235       C  0.28150247  0.11946817  0.06831935     0.18300
C1236       C  0.28904178  0.09340845  0.06835265    -0.19700
C1237       C  0.28620928  0.13796508  0.07755746    -0.21000
C1238       C  0.28163817  0.16562593  0.07751556    -0.19500
C1239       C  0.27249936  0.17564143  0.06821479     0.19700
C1240       C  0.26603498  0.15651177  0.05880919     0.01800
C1241       C  0.25716920  0.16796862  0.04961195    -0.14200
C1242       C  0.25723228  0.19838018  0.04957260    -0.12000
C1243       C  0.26542317  0.21799460  0.05871001     0.01300
C1244       C  0.27159795  0.20575311  0.06812183    -0.24100
H1245       H  0.27101713  0.06897594  0.04268998     0.09400
H1246       H  0.25658769  0.11215510  0.04242257     0.12900
H1247       H  0.29852189  0.08797549  0.07549485     0.11600
H1248       H  0.29434797  0.13153847  0.08480328     0.12800
H1249       H  0.28639281  0.17997089  0.08472522     0.11900
H1250       H  0.25137770  0.15476660  0.04220406     0.08900
H1251       H  0.25209216  0.20721519  0.04222468     0.12200
H1252       H  0.27793306  0.22080509  0.07523428     0.14100
C1253       C  0.38702566  0.04704665  0.08337863    -0.01400
C1254       C  0.40640684  0.08208067  0.08436584    -0.09400
C1255       C  0.41998927  0.09663023  0.09412032    -0.18300
C1256       C  0.41470456  0.07637570  0.10321037     0.04100
C1257       C  0.39829575  0.04087425  0.10186933     0.18300
C1258       C  0.38421507  0.02653612  0.09204405    -0.19700
C1259       C  0.39472383  0.01988954  0.11046586    -0.21000
C1260       C  0.40541629  0.03327571  0.12050513    -0.19500
C1261       C  0.41855167  0.06773729  0.12225781     0.19700
C1262       C  0.42365032  0.08984544  0.11363574     0.01800
C1263       C  0.43553608  0.12409257  0.11591650    -0.14200
C1264       C  0.43923430  0.13520153  0.12635365    -0.12000
C1265       C  0.43152233  0.11272398  0.13495617     0.01300
C1266       C  0.42453702  0.07979540  0.13267569    -0.24100
H1267       H  0.40943255  0.09844208  0.07771702     0.09400
H1268       H  0.43382778  0.12375429  0.09435132     0.12900
H1269       H  0.36985454  0.99937582  0.09126253     0.11600
H1270       H  0.38288958  0.99286944  0.10946782     0.12800
H1271       H  0.40160798  0.01627650  0.12704619     0.11900
H1272       H  0.44071976  0.14265889  0.10982515     0.08900
H1273       H  0.44795586  0.16161102  0.12760038     0.12200
H1274       H  0.42045053  0.06250590  0.13915447     0.14100
C1275       C  0.07969523  0.76801736  0.05607526    -0.01400
C1276       C  0.08600871  0.79433771  0.04908511    -0.09400
C1277       C  0.11715381  0.82339460  0.04863450    -0.18300
C1278       C  0.14341865  0.82740562  0.05526047     0.04100
C1279       C  0.13712808  0.80066529  0.06236649     0.18300
C1280       C  0.10546775  0.77121122  0.06268437    -0.19700
C1281       C  0.16238784  0.80372475  0.06915095    -0.21000
C1282       C  0.19350940  0.83306073  0.06918386    -0.19500
C1283       C  0.20024274  0.86008629  0.06240899     0.19700
C1284       C  0.17539553  0.85731132  0.05522231     0.01800
C1285       C  0.18340449  0.88488048  0.04840071    -0.14200
C1286       C  0.21392811  0.91450123  0.04906141    -0.12000
C1287       C  0.23791196  0.91785966  0.05641372     0.01300
C1288       C  0.23134287  0.89020454  0.06290354    -0.24100
H1289       H  0.06666609  0.79250046  0.04386357     0.09400
H1290       H  0.11959801  0.84232608  0.04305386     0.12900
H1291       H  0.10083297  0.75093062  0.06812527     0.11600
H1292       H  0.15791066  0.78345103  0.07456940     0.12800
H1293       H  0.21229936  0.83477800  0.07464019     0.11900
H1294       H  0.16655105  0.88468708  0.04252052     0.08900
H1295       H  0.21861503  0.93517356  0.04379375     0.12200
H1296       H  0.24996117  0.89243882  0.06852978     0.14100
C1297       C  0.88474006  0.57050898  0.13417106    -0.01400
C1298       C  0.91786186  0.57879174  0.13225104    -0.09400
C1299       C  0.93130952  0.58583695  0.12206656    -0.18300
C1300       C  0.91181676  0.58391553  0.11324408     0.04100
C1301       C  0.87735843  0.57140854  0.11496159     0.18300
C1302       C  0.86412392  0.56446071  0.12528613    -0.19700
C1303       C  0.85644626  0.56682019  0.10637855    -0.21000
C1304       C  0.86937974  0.57630766  0.09620488    -0.19500
C1305       C  0.90361663  0.59116743  0.09439527     0.19700
C1306       C  0.92533907  0.59468135  0.10284429     0.01800
C1307       C  0.95983307  0.61061897  0.10061880    -0.14200
C1308       C  0.97229464  0.62434857  0.09060647    -0.12000
C1309       C  0.95083899  0.62202754  0.08245363     0.01300
C1310       C  0.91643126  0.60420108  0.08429530    -0.24100
H1311       H  0.93412785  0.58168562  0.13879521     0.09400
H1312       H  0.95716243  0.59312709  0.12138079     0.12900
H1313       H  0.83773701  0.55468075  0.12630999     0.11600
H1314       H  0.83002001  0.55667673  0.10757937     0.12800
H1315       H  0.85264246  0.57327059  0.08977637     0.11900
H1316       H  0.97797008  0.61432756  0.10657069     0.08900
H1317       H  0.99896208  0.63790887  0.08935471     0.12200
H1318       H  0.89962367  0.60233061  0.07802872     0.14100
C1319       C  0.76667449  0.71730738  0.05514810    -0.01400
C1320       C  0.78360359  0.72188975  0.06473041    -0.09400
C1321       C  0.81485500  0.72448356  0.06498388    -0.18300
C1322       C  0.83010270  0.72210913  0.05560290     0.04100
C1323       C  0.81288949  0.71775559  0.04589010     0.18300
C1324       C  0.78180808  0.71592397  0.04573521    -0.19700
C1325       C  0.82621184  0.71404318  0.03641714    -0.21000
C1326       C  0.85579756  0.71348924  0.03640046    -0.19500
C1327       C  0.87314013  0.71723646  0.04583038     0.19700
C1328       C  0.86109047  0.72255030  0.05553636     0.01800
C1329       C  0.88024777  0.72726857  0.06476226    -0.14200
C1330       C  0.90876249  0.72439632  0.06447107    -0.12000
C1331       C  0.91925455  0.71698769  0.05500399     0.01300
C1332       C  0.90192378  0.71456542  0.04565149    -0.24100
H1333       H  0.77228362  0.72268404  0.07212602     0.09400
H1334       H  0.82595207  0.72729297  0.07267975     0.12900
H1335       H  0.76870470  0.71191886  0.03829462     0.11600
H1336       H  0.81321608  0.71068244  0.02899188     0.12800
H1337       H  0.86495988  0.70965226  0.02896558     0.11900
H1338       H  0.87351828  0.73258968  0.07235955     0.08900
H1339       H  0.92194796  0.72675445  0.07178376     0.12200
H1340       H  0.91001542  0.70912308  0.03825987     0.14100
C1341       C  0.63194827  0.62311508  0.08076130    -0.01400
C1342       C  0.61159917  0.62486747  0.08857657    -0.09400
C1343       C  0.60853331  0.60987235  0.09852510    -0.18300
C1344       C  0.62664215  0.59350315  0.10100110     0.04100
C1345       C  0.64559700  0.59017791  0.09278813     0.18300
C1346       C  0.64728801  0.60409125  0.08274373    -0.19700
C1347       C  0.66475777  0.57513516  0.09482976    -0.21000
C1348       C  0.66786209  0.56595772  0.10507788    -0.19500
C1349       C  0.65113799  0.57076040  0.11346174     0.19700
C1350       C  0.62870353  0.58258567  0.11146454     0.01800
C1351       C  0.61013692  0.58378583  0.12009563    -0.14200
C1352       C  0.61618604  0.57684722  0.13039039    -0.12000
C1353       C  0.64210488  0.57023495  0.13259070     0.01300
C1354       C  0.65755904  0.56471118  0.12386657    -0.24100
H1355       H  0.59928475  0.63921899  0.08717369     0.09400
H1356       H  0.59353262  0.61333332  0.10430908     0.12900
H1357       H  0.66296271  0.60245071  0.07671282     0.11600
H1358       H  0.67892565  0.57216285  0.08856009     0.12800
H1359       H  0.68430511  0.55604393  0.10650142     0.11900
H1360       H  0.59091931  0.59014932  0.11913261     0.08900
H1361       H  0.60165768  0.57842121  0.13681443     0.12200
H1362       H  0.67469716  0.55559254  0.12505553     0.14100
C1363       C  0.73083915  0.08162524  0.05681368    -0.01400
C1364       C  0.74837010  0.09312546  0.06632083    -0.09400
C1365       C  0.78027968  0.12133638  0.06645134    -0.18300
C1366       C  0.79566075  0.13907336  0.05700637     0.04100
C1367       C  0.77838855  0.12615509  0.04731529     0.18300
C1368       C  0.74622377  0.09788043  0.04731378    -0.19700
C1369       C  0.79312351  0.14178340  0.03769118    -0.21000
C1370       C  0.82453787  0.17037774  0.03747901    -0.19500
C1371       C  0.84153533  0.18460292  0.04690437     0.19700
C1372       C  0.82729791  0.16933778  0.05682490     0.01800
C1373       C  0.84476140  0.18578880  0.06612645    -0.14200
C1374       C  0.87471919  0.21638602  0.06556953    -0.12000
C1375       C  0.88854271  0.23117961  0.05576802     0.01300
C1376       C  0.87217762  0.21478885  0.04646832    -0.24100
H1377       H  0.73715782  0.08057854  0.07374116     0.09400
H1378       H  0.79222381  0.12863477  0.07406459     0.12900
H1379       H  0.73293952  0.08883321  0.03990015     0.11600
H1380       H  0.78020479  0.13189098  0.03027195     0.12800
H1381       H  0.83522780  0.18197786  0.02989990     0.11900
H1382       H  0.83536705  0.17631555  0.07395082     0.08900
H1383       H  0.88682767  0.22883151  0.07285923     0.12200
H1384       H  0.88250522  0.22640742  0.03885412     0.14100
C1385       C  0.64313994  0.92039838  0.05915680    -0.01400
C1386       C  0.67511268  0.92457495  0.05942422    -0.09400
C1387       C  0.67964885  0.89676166  0.06009623    -0.18300
C1388       C  0.65213248  0.86352977  0.06034212     0.04100
C1389       C  0.61972065  0.85946322  0.06009833     0.18300
C1390       C  0.61554339  0.88774178  0.05965428    -0.19700
C1391       C  0.59162237  0.82716048  0.06005530    -0.21000
C1392       C  0.59493500  0.79873376  0.05993052    -0.19500
C1393       C  0.62642987  0.80181115  0.06001002     0.19700
C1394       C  0.65552417  0.83420549  0.06047641     0.01800
C1395       C  0.68666503  0.83572036  0.06084849    -0.14200
C1396       C  0.68879999  0.80647373  0.06019627    -0.12000
C1397       C  0.66009782  0.77474903  0.05926720     0.01300
C1398       C  0.62895960  0.77261050  0.05941785    -0.24100
H1399       H  0.69685587  0.94957788  0.05911499     0.09400
H1400       H  0.70500116  0.90209743  0.06019446     0.12900
H1401       H  0.59071145  0.88427038  0.05942744     0.11600
H1402       H  0.56686080  0.82384782  0.05989102     0.12800
H1403       H  0.57264835  0.77411977  0.05965933     0.11900
H1404       H  0.70984521  0.85914167  0.06154081     0.08900
H1405       H  0.71313491  0.80877034  0.06030292     0.12200
H1406       H  0.60656182  0.74815362  0.05882624     0.14100
C1407       C  0.60326608  0.03341664  0.08419874    -0.01400
C1408       C  0.59163492  0.01195435  0.09303338    -0.09400
C1409       C  0.59313552  0.02469986  0.10314773    -0.18300
C1410       C  0.60704978  0.05968753  0.10478051     0.04100
C1411       C  0.61623952  0.08101375  0.09569850     0.18300
C1412       C  0.61407889  0.06772520  0.08552420    -0.19700
C1413       C  0.62911911  0.11569816  0.09688034    -0.21000
C1414       C  0.63449144  0.12988236  0.10691260    -0.19500
C1415       C  0.62799393  0.10987584  0.11601100     0.19700
C1416       C  0.61375976  0.07445326  0.11507367     0.01800
C1417       C  0.60830871  0.05554998  0.12447085    -0.14200
C1418       C  0.61949959  0.07139886  0.13420338    -0.12000
C1419       C  0.63666767  0.10678992  0.13505768     0.01300
C1420       C  0.63725917  0.12528664  0.12600663    -0.24100
H1421       H  0.58269767  0.98529674  0.09219012     0.09400
H1422       H  0.58427064  0.00662719  0.10955295     0.12900
H1423       H  0.62301695  0.08454499  0.07872102     0.11600
H1424       H  0.63586688  0.13210189  0.08999797     0.12800
H1425       H  0.64525139  0.15690961  0.10754426     0.11900
H1426       H  0.59655263  0.02849782  0.12454755     0.08900
H1427       H  0.61517560  0.05559001  0.14110534     0.12200
H1428       H  0.64727678  0.15220726  0.12659203     0.14100
C1429       C  0.07975498  0.74463537  0.72056559    -0.01400
C1430       C  0.09733412  0.75462165  0.73010059    -0.09400
C1431       C  0.13024563  0.78089059  0.73032972    -0.18300
C1432       C  0.14676079  0.79819881  0.72095113     0.04100
C1433       C  0.12891997  0.78761201  0.71125297     0.18300
C1434       C  0.09579332  0.76097489  0.71114101    -0.19700
C1435       C  0.14396558  0.80420333  0.70176454    -0.21000
C1436       C  0.17597779  0.83195675  0.70174132    -0.19500
C1437       C  0.19380830  0.84359274  0.71119283     0.19700
C1438       C  0.17985179  0.82635254  0.72089953     0.01800
C1439       C  0.19927975  0.83873182  0.73017642    -0.14200
C1440       C  0.22999619  0.86847290  0.72995027    -0.12000
C1441       C  0.24252392  0.88654378  0.72049136     0.01300
C1442       C  0.22496882  0.87326305  0.71106594    -0.24100
H1443       H  0.08539319  0.74243597  0.73749027     0.09400
H1444       H  0.14177977  0.78740091  0.73801002     0.12900
H1445       H  0.08228715  0.75337361  0.70372512     0.11600
H1446       H  0.13059065  0.79615069  0.69434003     0.12800
H1447       H  0.18660290  0.84483187  0.69430487     0.11900
H1448       H  0.19110474  0.82659577  0.73778983     0.08900
H1449       H  0.24333140  0.87810320  0.73731572     0.12200
H1450       H  0.23465212  0.88705120  0.70369320     0.14100
C1451       C  0.55654704  0.98672589  0.72393088    -0.01400
C1452       C  0.55815198  0.01794069  0.72434459    -0.09400
C1453       C  0.52912722  0.01987882  0.72422550    -0.18300
C1454       C  0.49740774  0.99042359  0.72366250     0.04100
C1455       C  0.49608215  0.95883614  0.72327711     0.18300
C1456       C  0.52542293  0.95730216  0.72342771    -0.19700
C1457       C  0.46547636  0.92886600  0.72271950    -0.21000
C1458       C  0.43597010  0.92947930  0.72247743    -0.19500
C1459       C  0.43632539  0.96007787  0.72280585     0.19700
C1460       C  0.46698471  0.99105041  0.72344464     0.01800
C1461       C  0.46571620  0.02117171  0.72382737    -0.14200
C1462       C  0.43531050  0.02044858  0.72359354    -0.12000
C1463       C  0.40529584  0.98984974  0.72288798     0.01300
C1464       C  0.40604219  0.95979069  0.72248699    -0.24100
H1465       H  0.58197978  0.04102668  0.72476312     0.09400
H1466       H  0.53237087  0.04477699  0.72455972     0.12900
H1467       H  0.52398099  0.93302030  0.72311304     0.11600
H1468       H  0.46434225  0.90473723  0.72243977     0.12800
H1469       H  0.41266940  0.90580965  0.72201767     0.11900
H1470       H  0.48773907  0.04567630  0.72431352     0.08900
H1471       H  0.43531964  0.04400494  0.72387294     0.12200
H1472       H  0.38288791  0.93596563  0.72197610     0.14100
C1473       C  0.66339551  0.74843467  0.72217041    -0.01400
C1474       C  0.69234398  0.77986989  0.72298452    -0.09400
C1475       C  0.69066113  0.80916542  0.72365979    -0.18300
C1476       C  0.65969008  0.80794142  0.72359242     0.04100
C1477       C  0.63030367  0.77588096  0.72277363     0.18300
C1478       C  0.63241260  0.74654513  0.72199585    -0.19700
C1479       C  0.59902501  0.77329449  0.72281274    -0.21000
C1480       C  0.59625721  0.80193867  0.72364418    -0.19500
C1481       C  0.62471432  0.83388456  0.72434388     0.19700
C1482       C  0.65686213  0.83735169  0.72431792     0.01800
C1483       C  0.68481978  0.87017231  0.72493752    -0.14200
C1484       C  0.68102350  0.89829058  0.72541279    -0.12000
C1485       C  0.64939032  0.89481355  0.72532066     0.01300
C1486       C  0.62126594  0.86250704  0.72491112    -0.24100
H1487       H  0.71657022  0.78190243  0.72311657     0.09400
H1488       H  0.71411090  0.83227598  0.72429850     0.12900
H1489       H  0.60989150  0.72219385  0.72137542     0.11600
H1490       H  0.57653058  0.74893315  0.72222218     0.12800
H1491       H  0.57168544  0.79910666  0.72365824     0.11900
H1492       H  0.71003254  0.87515106  0.72494224     0.08900
H1493       H  0.70313293  0.92301257  0.72572355     0.12200
H1494       H  0.59667545  0.85965497  0.72482980     0.14100
C1495       C  0.41799363  0.43047905  0.72157641    -0.01400
C1496       C  0.44551500  0.42590248  0.72212700    -0.09400
C1497       C  0.47788352  0.45348627  0.72189212    -0.18300
C1498       C  0.48379733  0.48678682  0.72108370     0.04100
C1499       C  0.45568526  0.49118373  0.72033409     0.18300
C1500       C  0.42328646  0.46320606  0.72060878    -0.19700
C1501       C  0.46002129  0.52349785  0.71936234    -0.21000
C1502       C  0.49171490  0.55168026  0.71916634    -0.19500
C1503       C  0.51988442  0.54829024  0.72000336     0.19700
C1504       C  0.51646548  0.51585779  0.72099472     0.01800
C1505       C  0.54591746  0.51409978  0.72191017    -0.14200
C1506       C  0.57732014  0.54330482  0.72176871    -0.12000
C1507       C  0.58041016  0.57510639  0.72074510     0.01300
C1508       C  0.55152494  0.57731999  0.71988305    -0.24100
H1509       H  0.44203690  0.40082188  0.72283843     0.09400
H1510       H  0.49772109  0.44789213  0.72237299     0.12900
H1511       H  0.40210486  0.46697226  0.72013354     0.11600
H1512       H  0.43872396  0.52701882  0.71875702     0.12800
H1513       H  0.49420721  0.57635995  0.71840305     0.11900
H1514       H  0.54554133  0.49057444  0.72278691     0.08900
H1515       H  0.59927179  0.54097735  0.72250954     0.12200
H1516       H  0.55362883  0.60184140  0.71910907     0.14100
C1517       C  0.25373501  0.38014165  0.72614712    -0.01400
C1518       C  0.23828040  0.37883923  0.73578392    -0.09400
C1519       C  0.21031663  0.38266226  0.73607746    -0.18300
C1520       C  0.19655328  0.38730311  0.72664691     0.04100
C1521       C  0.21324306  0.38989961  0.71695390     0.18300
C1522       C  0.24172767  0.38681081  0.71681945    -0.19700
C1523       C  0.20060088  0.39402811  0.70736196    -0.21000
C1524       C  0.17080295  0.39404746  0.70709467    -0.19500
C1525       C  0.15310126  0.39030854  0.71642646     0.19700
C1526       C  0.16609581  0.38787354  0.72638677     0.01800
C1527       C  0.14731653  0.38480879  0.73556575    -0.14200
C1528       C  0.11600734  0.38197701  0.73478801    -0.12000
C1529       C  0.10260154  0.38237961  0.72488747     0.01300
C1530       C  0.12177707  0.38765102  0.71578143    -0.24100
H1531       H  0.24725878  0.37386678  0.74310819     0.09400
H1532       H  0.19939456  0.38069974  0.74375324     0.12900
H1533       H  0.25354514  0.38782850  0.70932419     0.11600
H1534       H  0.21331939  0.39619309  0.69996300     0.12800
H1535       H  0.16114000  0.39621682  0.69949620     0.11900
H1536       H  0.15574752  0.38366800  0.74342775     0.08900
H1537       H  0.10170690  0.37815418  0.74194635     0.12200
H1538       H  0.11168886  0.38825708  0.70808717     0.14100
C1539       C  0.99018226  0.58809219  0.72314239    -0.01400
C1540       C  0.01713264  0.58836332  0.71815477    -0.09400
C1541       C  0.01982928  0.55949520  0.71797821    -0.18300
C1542       C  0.99523677  0.52904251  0.72271326     0.04100
C1543       C  0.96845066  0.52920725  0.72805900     0.18300
C1544       C  0.96625416  0.55862100  0.72826843    -0.19700
C1545       C  0.94377279  0.49989095  0.73303485    -0.21000
C1546       C  0.94495242  0.47024944  0.73276185    -0.19500
C1547       C  0.97072701  0.46909990  0.72744724     0.19700
C1548       C  0.99618263  0.49846175  0.72230232     0.01800
C1549       C  0.02129384  0.49581745  0.71687455    -0.14200
C1550       C  0.02152977  0.46561464  0.71676722    -0.12000
C1551       C  0.99680282  0.43693036  0.72199624     0.01300
C1552       C  0.97124233  0.43873489  0.72724897    -0.24100
H1553       H  0.03619503  0.61101462  0.71427463     0.09400
H1554       H  0.04136131  0.56185811  0.71400552     0.12900
H1555       H  0.94541848  0.55831222  0.73220414     0.11600
H1556       H  0.92333335  0.49985190  0.73714322     0.12800
H1557       H  0.92544772  0.44799788  0.73669479     0.11900
H1558       H  0.04112334  0.51657290  0.71260122     0.08900
H1559       H  0.04135180  0.46478087  0.71255626     0.12200
H1560       H  0.95187273  0.41656728  0.73126476     0.14100
C1561       C  0.22245508  0.00069831  0.80112803    -0.01400
C1562       C  0.19996318  0.98247251  0.79288266    -0.09400
C1563       C  0.21007602  0.98632979  0.78228503    -0.18300
C1564       C  0.24356830  0.00779439  0.77933426     0.04100
C1565       C  0.26667552  0.02507641  0.78750048     0.18300
C1566       C  0.25623531  0.02065975  0.79806357    -0.19700
C1567       C  0.30057349  0.04550721  0.78518608    -0.21000
C1568       C  0.31228217  0.04772152  0.77494776    -0.19500
C1569       C  0.29031171  0.02985104  0.76676048     0.19700
C1570       C  0.25546080  0.01074764  0.76872679     0.01800
C1571       C  0.23427903  0.99455624  0.76004332    -0.14200
C1572       C  0.24738667  0.99494957  0.75007342    -0.12000
C1573       C  0.28186195  0.01144702  0.74844099     0.01300
C1574       C  0.30315141  0.02980480  0.75671703    -0.24100
H1575       H  0.17454277  0.96360936  0.79429502     0.09400
H1576       H  0.19120699  0.97095328  0.77660763     0.12900
H1577       H  0.27559737  0.03061724  0.80402250     0.11600
H1578       H  0.31835300  0.05911834  0.79141240     0.12800
H1579       H  0.33879172  0.06281727  0.77347779     0.11900
H1580       H  0.20755178  0.98087541  0.76075744     0.08900
H1581       H  0.23041368  0.98088993  0.74373458     0.12200
H1582       H  0.32983885  0.04303517  0.75544726     0.14100
C1583       C  0.32767158  0.91752504  0.84353368    -0.01400
C1584       C  0.33188000  0.94816223  0.84749831    -0.09400
C1585       C  0.31901028  0.96593691  0.84215488    -0.18300
C1586       C  0.30174703  0.95403064  0.83252504     0.04100
C1587       C  0.30311672  0.92694554  0.82761621     0.18300
C1588       C  0.31833573  0.91076127  0.83280447    -0.19700
C1589       C  0.28672203  0.91421144  0.81800193    -0.21000
C1590       C  0.26728171  0.92623482  0.81353178    -0.19500
C1591       C  0.26416467  0.95177111  0.81844050     0.19700
C1592       C  0.28214632  0.96692769  0.82780888     0.01800
C1593       C  0.27829087  0.99306249  0.83225989    -0.14200
C1594       C  0.25690122  0.00312062  0.82771349    -0.12000
C1595       C  0.23821556  0.98733442  0.81860209     0.01300
C1596       C  0.24243246  0.96155521  0.81410827    -0.24100
H1597       H  0.34371425  0.95791014  0.85504385     0.09400
H1598       H  0.32149961  0.98794865  0.84600342     0.12900
H1599       H  0.31762432  0.88911587  0.82916492     0.11600
H1600       H  0.28761232  0.89366868  0.81416504     0.12800
H1601       H  0.25391629  0.91487760  0.80628711     0.11900
H1602       H  0.29119508  0.00589313  0.83936045     0.08900
H1603       H  0.25452207  0.02276761  0.83154208     0.12200
H1604       H  0.22811552  0.94857505  0.80716008     0.14100
C1605       C  0.30602776  0.29723720  0.75239007    -0.01400
C1606       C  0.32315609  0.31577276  0.76132168    -0.09400
C1607       C  0.31187096  0.30321566  0.77147805    -0.18300
C1608       C  0.28279761  0.27160195  0.77300735     0.04100
C1609       C  0.26751407  0.25143110  0.76396570     0.18300
C1610       C  0.27900819  0.26448979  0.75375114    -0.19700
C1611       C  0.24017222  0.21887769  0.76518934    -0.21000
C1612       C  0.22723485  0.20628643  0.77520704    -0.19500
C1613       C  0.24037073  0.22651779  0.78417036     0.19700
C1614       C  0.26797993  0.25962881  0.78315552     0.01800
C1615       C  0.27809169  0.28026371  0.79217576    -0.14200
C1616       C  0.26176731  0.26844159  0.80183219    -0.12000
C1617       C  0.23580019  0.23479415  0.80315855     0.01300
C1618       C  0.22523706  0.21428194  0.79408083    -0.24100
H1619       H  0.34459918  0.34082414  0.76047484     0.09400
H1620       H  0.32619616  0.31894031  0.77797976     0.12900
H1621       H  0.26597798  0.24973916  0.74687007     0.11600
H1622       H  0.22859139  0.20314085  0.75835294     0.12800
H1623       H  0.20601623  0.18101884  0.77589908     0.11900
H1624       H  0.29726259  0.30643835  0.79186165     0.08900
H1625       H  0.26889442  0.28688921  0.80797427     0.12200
H1626       H  0.20431083  0.18880121  0.79473651     0.14100
C1627       C  0.21799555  0.18784171  0.81681115    -0.01400
C1628       C  0.19583154  0.16270044  0.82393016    -0.09400
C1629       C  0.19499377  0.13157948  0.82502466    -0.18300
C1630       C  0.21873635  0.12582412  0.81989331     0.04100
C1631       C  0.24495371  0.15365671  0.81447681     0.18300
C1632       C  0.24432911  0.18370103  0.81298953    -0.19700
C1633       C  0.27167880  0.15135199  0.81039992    -0.21000
C1634       C  0.27233531  0.12154256  0.81124675    -0.19500
C1635       C  0.24542605  0.09258777  0.81564800     0.19700
C1636       C  0.21810499  0.09405996  0.81998582     0.01800
C1637       C  0.19126636  0.06346409  0.82385949    -0.14200
C1638       C  0.19044005  0.03251224  0.82252041    -0.12000
C1639       C  0.21651793  0.03052824  0.81736378     0.01300
C1640       C  0.24531092  0.06192814  0.81522383    -0.24100
H1641       H  0.17835222  0.16655814  0.82846263     0.09400
H1642       H  0.17602485  0.11259519  0.83007904     0.12900
H1643       H  0.26481195  0.20399405  0.80869140     0.11600
H1644       H  0.29216232  0.17272741  0.80644827     0.12800
H1645       H  0.29338953  0.12067636  0.80789527     0.11900
H1646       H  0.16979497  0.06263136  0.82747853     0.08900
H1647       H  0.16874193  0.01016265  0.82545667     0.12200
H1648       H  0.26819764  0.06325761  0.81277131     0.14100
C1649       C  0.23128501  0.24601553  0.82303963    -0.01400
C1650       C  0.21197277  0.25705035  0.82843583    -0.09400
C1651       C  0.22678324  0.28883961  0.83295965    -0.18300
C1652       C  0.26159117  0.30955245  0.83306611     0.04100
C1653       C  0.28097536  0.29479616  0.83047038     0.18300
C1654       C  0.26560915  0.26263295  0.82562607    -0.19700
C1655       C  0.31547507  0.31327003  0.83221265    -0.21000
C1656       C  0.33059376  0.34592617  0.83641334    -0.19500
C1657       C  0.31202868  0.36189123  0.83818076     0.19700
C1658       C  0.27757291  0.34412781  0.83592966     0.01800
C1659       C  0.26043640  0.36189312  0.83617255    -0.14200
C1660       C  0.27565272  0.39478768  0.83979224    -0.12000
C1661       C  0.30862973  0.41160221  0.84384255     0.01300
C1662       C  0.32706427  0.39490973  0.84242155    -0.24100
H1663       H  0.18508482  0.24264981  0.82839336     0.09400
H1664       H  0.21055745  0.29690828  0.83626610     0.12900
H1665       H  0.28094821  0.25301488  0.82259381     0.11600
H1666       H  0.33076341  0.30233088  0.83041463     0.12800
H1667       H  0.35708134  0.35912993  0.83796307     0.11900
H1668       H  0.23488639  0.35066445  0.83360196     0.08900
H1669       H  0.25920071  0.40476410  0.84032031     0.12200
H1670       H  0.35227251  0.40641175  0.84539087     0.14100
C1671       C  0.29208392  0.45060351  0.85302565    -0.01400
C1672       C  0.28552326  0.46553056  0.84423675    -0.09400
C1673       C  0.25646756  0.46760724  0.84373564    -0.18300
C1674       C  0.23320355  0.45554736  0.85216006     0.04100
C1675       C  0.24217984  0.44492092  0.86155583     0.18300
C1676       C  0.27176357  0.44386794  0.86204405    -0.19700
C1677       C  0.22092769  0.43399208  0.87034080    -0.21000
C1678       C  0.19043633  0.43251316  0.86991870    -0.19500
C1679       C  0.18032217  0.44187769  0.86069701     0.19700
C1680       C  0.20138264  0.45339817  0.85165476     0.01800
C1681       C  0.18892793  0.46066681  0.84241081    -0.14200
C1682       C  0.15727040  0.45728893  0.84227846    -0.12000
C1683       C  0.13703559  0.44782485  0.85142164     0.01300
C1684       C  0.14880204  0.43893742  0.86047872    -0.24100
H1685       H  0.30158297  0.47295611  0.83734897     0.09400
H1686       H  0.25239685  0.47787759  0.83655744     0.12900
H1687       H  0.27777051  0.43630284  0.86945108     0.11600
H1688       H  0.22764681  0.42587493  0.87754382     0.12800
H1689       H  0.17444045  0.42354904  0.87683566     0.11900
H1690       H  0.20277361  0.46821281  0.83509022     0.08900
H1691       H  0.14840634  0.46230951  0.83493777     0.12200
H1692       H  0.13300941  0.42790891  0.86732455     0.14100
C1693       C  0.97343755  0.28258059  0.74685119    -0.01400
C1694       C  0.95184350  0.28071936  0.75486368    -0.09400
C1695       C  0.95017434  0.26479156  0.76452773    -0.18300
C1696       C  0.97115716  0.25135763  0.76659008     0.04100
C1697       C  0.99244128  0.25271189  0.75830485     0.18300
C1698       C  0.99261669  0.26727535  0.74847759    -0.19700
C1699       C  0.01495210  0.24144587  0.76007188    -0.21000
C1700       C  0.01840409  0.23097427  0.77010402    -0.19500
C1701       C  0.99871903  0.23055669  0.77852953     0.19700
C1702       C  0.97354736  0.23886039  0.77676453     0.01800
C1703       C  0.95245903  0.23497469  0.78533484    -0.14200
C1704       C  0.95863859  0.22700194  0.79547061    -0.12000
C1705       C  0.98681614  0.22397559  0.79758390     0.01300
C1706       C  0.00488999  0.22295044  0.78877651    -0.24100
H1707       H  0.93691874  0.29252027  0.75376688     0.09400
H1708       H  0.93368669  0.26513377  0.77044244     0.12900
H1709       H  0.00977700  0.26909174  0.74235821     0.11600
H1710       H  0.03114258  0.24227356  0.75377643     0.12800
H1711       H  0.03720845  0.22398142  0.77133753     0.11900
H1712       H  0.93124573  0.23832595  0.78446136     0.08900
H1713       H  0.94252818  0.22540259  0.80190087     0.12200
H1714       H  0.02421765  0.21667416  0.78975429     0.14100
C1715       C  0.02830279  0.21866874  0.80984879    -0.01400
C1716       C  0.05824649  0.24706259  0.80646526    -0.09400
C1717       C  0.08827711  0.24713430  0.80629845    -0.18300
C1718       C  0.09004871  0.21854545  0.80950991     0.04100
C1719       C  0.06037501  0.19010709  0.81324493     0.18300
C1720       C  0.03037009  0.19078202  0.81373307    -0.19700
C1721       C  0.06078457  0.16098304  0.81640407    -0.21000
C1722       C  0.09000187  0.15952333  0.81592162    -0.19500
C1723       C  0.11996437  0.18748415  0.81255605     0.19700
C1724       C  0.12026613  0.21734596  0.80930898     0.01800
C1725       C  0.15094064  0.24494229  0.80614179    -0.14200
C1726       C  0.18026029  0.24403808  0.80708060    -0.12000
C1727       C  0.18098634  0.21535296  0.81094484     0.01300
C1728       C  0.14977229  0.18612962  0.81279497    -0.24100
H1729       H  0.05822411  0.26936992  0.80364940     0.09400
H1730       H  0.10958479  0.26995106  0.80344719     0.12900
H1731       H  0.00879421  0.16917015  0.81711283     0.11600
H1732       H  0.03823474  0.13901384  0.81921996     0.12800
H1733       H  0.08930449  0.13660182  0.81845997     0.11900
H1734       H  0.15350845  0.26834201  0.80335462     0.08900
H1735       H  0.20316303  0.26717811  0.80533460     0.12200
H1736       H  0.14796097  0.16242955  0.81470605     0.14100
C1737       C  0.00284154  0.25212977  0.81584887    -0.01400
C1738       C  0.00583705  0.28164559  0.81106366    -0.09400
C1739       C  0.01955065  0.31242957  0.81635798    -0.18300
C1740       C  0.03261690  0.31618734  0.82662817     0.04100
C1741       C  0.02946641  0.28680956  0.83163857     0.18300
C1742       C  0.01398228  0.25533725  0.82640811    -0.19700
C1743       C  0.04305761  0.28929346  0.84170872    -0.21000
C1744       C  0.05978621  0.32014073  0.84684654    -0.19500
C1745       C  0.06308073  0.34941097  0.84213917     0.19700
C1746       C  0.04946331  0.34808864  0.83200313     0.01800
C1747       C  0.05369441  0.37880496  0.82774542    -0.14200
C1748       C  0.07006045  0.40924478  0.83345563    -0.12000
C1749       C  0.08298498  0.41030421  0.84360882     0.01300
C1750       C  0.07987541  0.37996068  0.84762707    -0.24100
H1751       H  0.99980783  0.28254985  0.80288279     0.09400
H1752       H  0.02108304  0.33339422  0.81197259     0.12900
H1753       H  0.01290032  0.23366631  0.83028418     0.11600
H1754       H  0.04115344  0.26727123  0.84559482     0.12800
H1755       H  0.07019544  0.32108331  0.85460758     0.11900
H1756       H  0.04439919  0.38002669  0.82003033     0.08900
H1757       H  0.07270411  0.43187489  0.82983674     0.12200
H1758       H  0.08991609  0.37998463  0.85537786     0.14100
C1759       C  0.10143491  0.47494922  0.84652580    -0.01400
C1760       C  0.07119376  0.47464722  0.84505568    -0.09400
C1761       C  0.07012087  0.50464908  0.84391536    -0.18300
C1762       C  0.09949153  0.53666592  0.84404417     0.04100
C1763       C  0.13015717  0.53709218  0.84455549     0.18300
C1764       C  0.13087892  0.50695778  0.84603864    -0.19700
C1765       C  0.16019267  0.56787026  0.84404830    -0.21000
C1766       C  0.16047182  0.59829023  0.84345189    -0.19500
C1767       C  0.13076580  0.59903748  0.84381475     0.19700
C1768       C  0.09979960  0.56827372  0.84408378     0.01800
C1769       C  0.07079271  0.57069411  0.84494115    -0.14200
C1770       C  0.07269242  0.60198773  0.84630894    -0.12000
C1771       C  0.10346406  0.63259698  0.84662957     0.01300
C1772       C  0.13217665  0.63048092  0.84449576    -0.24100
H1773       H  0.04790425  0.45096779  0.84539671     0.09400
H1774       H  0.04587267  0.50211219  0.84313912     0.12900
H1775       H  0.15484990  0.50938071  0.84748997     0.11600
H1776       H  0.18377794  0.56847747  0.84426163     0.12800
H1777       H  0.18425199  0.62152038  0.84323196     0.11900
H1778       H  0.04633098  0.54860042  0.84518878     0.08900
H1779       H  0.04978496  0.60204686  0.84771581     0.12200
H1780       H  0.15623486  0.65299864  0.84389235     0.14100
C1781       C  0.14032281  0.69810714  0.84974384    -0.01400
C1782       C  0.16671516  0.70063729  0.85606444    -0.09400
C1783       C  0.19831006  0.73015752  0.85631958    -0.18300
C1784       C  0.20501431  0.75920516  0.85041085     0.04100
C1785       C  0.17843364  0.75718396  0.84428422     0.18300
C1786       C  0.14697954  0.72771425  0.84420461    -0.19700
C1787       C  0.18281965  0.78509605  0.83842720    -0.21000
C1788       C  0.21266255  0.81532583  0.83873664    -0.19500
C1789       C  0.23932013  0.81851495  0.84477585     0.19700
C1790       C  0.23640977  0.79056482  0.85055655     0.01800
C1791       C  0.26473476  0.79590971  0.85637506    -0.14200
C1792       C  0.29454505  0.82748334  0.85624894    -0.12000
C1793       C  0.29780284  0.85520914  0.85026946     0.01300
C1794       C  0.26858071  0.85006937  0.84512967    -0.24100
H1795       H  0.16266933  0.67951147  0.86099732     0.09400
H1796       H  0.21691687  0.72982198  0.86135284     0.12900
H1797       H  0.12750135  0.72944724  0.84018927     0.11600
H1798       H  0.16275496  0.78372867  0.83366714     0.12800
H1799       H  0.21487564  0.83649178  0.83419905     0.11900
H1800       H  0.26445370  0.77609068  0.86109330     0.08900
H1801       H  0.31530000  0.83037999  0.86095444     0.12200
H1802       H  0.26711305  0.87078987  0.84171779     0.14100
C1803       C  0.97976830  0.76388948  0.80124737    -0.01400
C1804       C  0.95403776  0.73111704  0.79865090    -0.09400
C1805       C  0.94638949  0.72000871  0.78823183    -0.18300
C1806       C  0.96480699  0.74083340  0.77967631     0.04100
C1807       C  0.99117139  0.77364249  0.78205326     0.18300
C1808       C  0.99906687  0.78422822  0.79262842    -0.19700
C1809       C  0.01036584  0.79551150  0.77385674    -0.21000
C1810       C  0.00465139  0.78502471  0.76338414    -0.19500
C1811       C  0.98014262  0.75212198  0.76085370     0.19700
C1812       C  0.95944963  0.72962105  0.76892942     0.01800
C1813       C  0.93559547  0.69637517  0.76594413    -0.14200
C1814       C  0.93447140  0.68524537  0.75559818    -0.12000
C1815       C  0.95612398  0.70710701  0.74782737     0.01300
C1816       C  0.97771669  0.74095200  0.75039072    -0.24100
H1817       H  0.94059231  0.71255392  0.80467579     0.09400
H1818       H  0.92638664  0.69451925  0.78718366     0.12900
H1819       H  0.02163902  0.80773146  0.79386441     0.11600
H1820       H  0.03030658  0.82078554  0.77556947     0.12800
H1821       H  0.02042453  0.80237886  0.75726252     0.11900
H1822       H  0.91851666  0.67788714  0.77151092     0.08900
H1823       H  0.91746120  0.65904079  0.75377167     0.12200
H1824       H  0.99471951  0.75801966  0.74442456     0.14100
C1825       C  0.01936300  0.81071774  0.81463033    -0.01400
C1826       C  0.02281961  0.83945347  0.80922593    -0.09400
C1827       C  0.05204296  0.87107848  0.80975756    -0.18300
C1828       C  0.07959613  0.87590205  0.81584915     0.04100
C1829       C  0.07593017  0.84786129  0.82176837     0.18300
C1830       C  0.04619773  0.81652215  0.82136220    -0.19700
C1831       C  0.10236320  0.85087290  0.82792435    -0.21000
C1832       C  0.13285946  0.88067618  0.82795116    -0.19500
C1833       C  0.13769410  0.90857645  0.82196460     0.19700
C1834       C  0.11089974  0.90708136  0.81611942     0.01800
C1835       C  0.11687779  0.93681479  0.81080282    -0.14200
C1836       C  0.14874283  0.96564704  0.81057878    -0.12000
C1837       C  0.17656626  0.96593232  0.81522940     0.01300
C1838       C  0.16954350  0.93760658  0.82162850    -0.24100
H1839       H  0.00287823  0.83716643  0.80420908     0.09400
H1840       H  0.05267912  0.89112659  0.80508052     0.12900
H1841       H  0.04479131  0.79658294  0.82632060     0.11600
H1842       H  0.09976698  0.82966039  0.83252571     0.12800
H1843       H  0.15303060  0.88167949  0.83255349     0.11900
H1844       H  0.09745489  0.93837489  0.80662586     0.08900
H1845       H  0.15216007  0.98744929  0.80614577     0.12200
H1846       H  0.18884874  0.93727093  0.82630812     0.14100
C1847       C  0.07788863  0.66963789  0.84360105    -0.01400
C1848       C  0.04814928  0.66552953  0.84810261    -0.09400
C1849       C  0.02905991  0.67713509  0.84299123    -0.18300
C1850       C  0.03803647  0.69241913  0.83291140     0.04100
C1851       C  0.06414169  0.69093236  0.82753847     0.18300
C1852       C  0.08260145  0.67804689  0.83270865    -0.19700
C1853       C  0.07286393  0.70411371  0.81725746    -0.21000
C1854       C  0.05737217  0.72003017  0.81243738    -0.19500
C1855       C  0.03285873  0.72351132  0.81777572     0.19700
C1856       C  0.02248946  0.70947845  0.82804251     0.01800
C1857       C  0.99851270  0.71493129  0.83318589    -0.14200
C1858       C  0.98603088  0.73419191  0.82843180    -0.12000
C1859       C  0.99624493  0.74824014  0.81822488     0.01300
C1860       C  0.01975659  0.74221611  0.81302818    -0.24100
H1861       H  0.03961812  0.65412276  0.85582341     0.09400
H1862       H  0.00767605  0.67435446  0.84720609     0.12900
H1863       H  0.10331175  0.67849346  0.82864151     0.11600
H1864       H  0.09249635  0.70298734  0.81301857     0.12800
H1865       H  0.06536670  0.73061062  0.80456655     0.11900
H1866       H  0.99003939  0.70583958  0.84111683     0.08900
H1867       H  0.96956457  0.73934559  0.83303687     0.12200
H1868       H  0.02939365  0.75381581  0.80536920     0.14100
C1869       C  0.51529965  0.88700020  0.84591011    -0.01400
C1870       C  0.51690504  0.91847890  0.84498195    -0.09400
C1871       C  0.48807339  0.92100914  0.84395963    -0.18300
C1872       C  0.45599859  0.89199928  0.84350967     0.04100
C1873       C  0.45444015  0.86040095  0.84309353     0.18300
C1874       C  0.48342727  0.85810435  0.84445123    -0.19700
C1875       C  0.42356536  0.83087114  0.84189647    -0.21000
C1876       C  0.39409991  0.83183578  0.84172639    -0.19500
C1877       C  0.39441958  0.86221543  0.84311054     0.19700
C1878       C  0.42538386  0.89284599  0.84386346     0.01800
C1879       C  0.42413004  0.92258781  0.84546092    -0.14200
C1880       C  0.39370962  0.92155175  0.84702364    -0.12000
C1881       C  0.36289805  0.89095658  0.84704054     0.01300
C1882       C  0.36385996  0.86171890  0.84425392    -0.24100
H1883       H  0.54050837  0.94150296  0.84595632     0.09400
H1884       H  0.49153599  0.94604910  0.84383639     0.12900
H1885       H  0.47998285  0.83314517  0.84513735     0.11600
H1886       H  0.42209333  0.80663252  0.84133774     0.12800
H1887       H  0.37073558  0.80833420  0.84102842     0.11900
H1888       H  0.44642194  0.94689234  0.84604632     0.08900
H1889       H  0.39441341  0.94488811  0.84883817     0.12200
H1890       H  0.34106508  0.83796389  0.84337332     0.14100
C1891       C  0.75874067  0.00400922  0.80248406    -0.01400
C1892       C  0.77520115  0.03300715  0.79595995    -0.09400
C1893       C  0.76134157  0.03529664  0.78635273    -0.18300
C1894       C  0.72955028  0.00953750  0.78314176     0.04100
C1895       C  0.71206598  0.98139777  0.78999433     0.18300
C1896       C  0.72723950  0.97811878  0.79909770    -0.19700
C1897       C  0.67916291  0.95681828  0.78787234    -0.21000
C1898       C  0.66337876  0.95917684  0.77887349    -0.19500
C1899       C  0.68074945  0.98516599  0.77152460     0.19700
C1900       C  0.71421144  0.01062757  0.77345516     0.01800
C1901       C  0.73115169  0.03499595  0.76540110    -0.14200
C1902       C  0.71582051  0.03307760  0.75566613    -0.12000
C1903       C  0.68297589  0.00758608  0.75384699     0.01300
C1904       C  0.66526906  0.98462577  0.76198020    -0.24100
H1905       H  0.79860957  0.05456802  0.79820219     0.09400
H1906       H  0.77543492  0.05818256  0.78180353     0.12900
H1907       H  0.71368413  0.95576596  0.80401956     0.11600
H1908       H  0.66544923  0.93575134  0.79325449     0.12800
H1909       H  0.63783957  0.93974701  0.77743685     0.11900
H1910       H  0.75677660  0.05462516  0.76619163     0.08900
H1911       H  0.73002626  0.05090268  0.74943804     0.12200
H1912       H  0.63993171  0.96456568  0.76060461     0.14100
C1913       C  0.96436294  0.18616165  0.81296949    -0.01400
C1914       C  0.94148410  0.18321179  0.82082760    -0.09400
C1915       C  0.91105818  0.15261183  0.82241804    -0.18300
C1916       C  0.90220438  0.12375684  0.81615050     0.04100
C1917       C  0.92600472  0.12657690  0.80856752     0.18300
C1918       C  0.95596389  0.15700764  0.80706976    -0.19700
C1919       C  0.91950254  0.09931352  0.80214269    -0.21000
C1920       C  0.88933245  0.06945803  0.80277348    -0.19500
C1921       C  0.86461276  0.06597748  0.80980288     0.19700
C1922       C  0.87051700  0.09262899  0.81674327     0.01800
C1923       C  0.84396647  0.08700178  0.82358400    -0.14200
C1924       C  0.81252288  0.05702845  0.82308384    -0.12000
C1925       C  0.80643937  0.03143053  0.81579752     0.01300
C1926       C  0.83353093  0.03620703  0.80951480    -0.24100
H1927       H  0.94625914  0.20481817  0.82549117     0.09400
H1928       H  0.89444928  0.15235270  0.82841361     0.12900
H1929       H  0.97277562  0.15850744  0.80087591     0.11600
H1930       H  0.93770096  0.10130979  0.79640018     0.12800
H1931       H  0.88498618  0.04914876  0.79749621     0.11900
H1932       H  0.84665725  0.10584936  0.82917440     0.08900
H1933       H  0.79273142  0.05459585  0.82816080     0.12200
H1934       H  0.82971544  0.01716118  0.80378086     0.14100
C1935       C  0.74323183  0.99443959  0.82185432    -0.01400
C1936       C  0.73826344  0.97692851  0.83152142    -0.09400
C1937       C  0.70713093  0.96047877  0.83659837    -0.18300
C1938       C  0.67920356  0.96076642  0.83225300     0.04100
C1939       C  0.68514854  0.98267090  0.82356640     0.18300
C1940       C  0.71737779  0.00124676  0.81910655    -0.19700
C1941       C  0.65854947  0.98460754  0.81903724    -0.21000
C1942       C  0.62606214  0.96470075  0.82285939    -0.19500
C1943       C  0.61915013  0.94253695  0.83143041     0.19700
C1944       C  0.64583308  0.94045286  0.83623322     0.01800
C1945       C  0.63795927  0.91779685  0.84474709    -0.14200
C1946       C  0.60569368  0.89955134  0.84872126    -0.12000
C1947       C  0.57891397  0.90209148  0.84439276     0.01300
C1948       C  0.58599139  0.92305061  0.83537572    -0.24100
H1949       H  0.75777174  0.97471490  0.83525556     0.09400
H1950       H  0.70552149  0.94683766  0.84375907     0.12900
H1951       H  0.72098875  0.01835977  0.81263409     0.11600
H1952       H  0.66277560  0.00111578  0.81231989     0.12800
H1953       H  0.60620118  0.96673376  0.81908557     0.11900
H1954       H  0.65640310  0.91406370  0.84870245     0.08900
H1955       H  0.60204633  0.88432607  0.85571487     0.12200
H1956       H  0.56631064  0.92546079  0.83167058     0.14100
C1957       C  0.35305320  0.47398831  0.85003593    -0.01400
C1958       C  0.37695425  0.47835679  0.84235795    -0.09400
C1959       C  0.40822068  0.50851729  0.84175729    -0.18300
C1960       C  0.41638059  0.53605336  0.84856681     0.04100
C1961       C  0.39133266  0.53225158  0.85578728     0.18300
C1962       C  0.36089533  0.50189154  0.85651954    -0.19700
C1963       C  0.39676594  0.55862763  0.86247328    -0.21000
C1964       C  0.42684845  0.58866675  0.86234985    -0.19500
C1965       C  0.45266935  0.59311119  0.85565940     0.19700
C1966       C  0.44813599  0.56714418  0.84862552     0.01800
C1967       C  0.47585412  0.57349404  0.84225984    -0.14200
C1968       C  0.50674822  0.60395832  0.84306196    -0.12000
C1969       C  0.51123741  0.62935157  0.85022793     0.01300
C1970       C  0.48330904  0.62330836  0.85629798    -0.24100
H1971       H  0.37209866  0.45847692  0.83688842     0.09400
H1972       H  0.42561129  0.50979777  0.83587452     0.12900
H1973       H  0.34321137  0.49957336  0.86251608     0.11600
H1974       H  0.37759446  0.55594443  0.86792088     0.12800
H1975       H  0.43015472  0.60842416  0.86771068     0.11900
H1976       H  0.47444263  0.55492258  0.83677926     0.08900
H1977       H  0.52731258  0.60699972  0.83826451     0.12200
H1978       H  0.48594869  0.64183947  0.86206251     0.14100
C1979       C  0.53886057  0.69210270  0.85355772    -0.01400
C1980       C  0.54485387  0.71099817  0.86295562    -0.09400
C1981       C  0.54191811  0.73982500  0.86332397    -0.18300
C1982       C  0.53295659  0.75162058  0.85428025     0.04100
C1983       C  0.52424175  0.73147715  0.84506264     0.18300
C1984       C  0.52451100  0.70083320  0.84512487    -0.19700
C1985       C  0.51685280  0.74285885  0.83568503    -0.21000
C1986       C  0.51940154  0.77443315  0.83517382    -0.19500
C1987       C  0.52761778  0.79475185  0.84417398     0.19700
C1988       C  0.53311460  0.78297688  0.85395954     0.01800
C1989       C  0.53926940  0.80348319  0.86291975    -0.14200
C1990       C  0.54125132  0.83487334  0.86213668    -0.12000
C1991       C  0.53736077  0.84768842  0.85235757     0.01300
C1992       C  0.53085299  0.82697419  0.84339870    -0.24100
H1993       H  0.55172301  0.70392668  0.87027993     0.09400
H1994       H  0.54802286  0.75302308  0.87074502     0.12900
H1995       H  0.51599301  0.68496843  0.83817626     0.11600
H1996       H  0.51044061  0.72786766  0.82856395     0.12800
H1997       H  0.51479535  0.78297928  0.82767668     0.11900
H1998       H  0.54304813  0.79609230  0.87068413     0.08900
H1999       H  0.54807892  0.84969169  0.86924664     0.12200
H2000       H  0.52857093  0.83631645  0.83571480     0.14100
C2001       C  0.76162306  0.75805717  0.80155931    -0.01400
C2002       C  0.78512900  0.77252037  0.79328706    -0.09400
C2003       C  0.77839757  0.75862915  0.78308227    -0.18300
C2004       C  0.74829563  0.72859903  0.78081906     0.04100
C2005       C  0.72592077  0.71239467  0.78935657     0.18300
C2006       C  0.73274278  0.72679482  0.79944875    -0.19700
C2007       C  0.69643134  0.68177461  0.78782433    -0.21000
C2008       C  0.68799198  0.66732334  0.77788201    -0.19500
C2009       C  0.70867709  0.68320767  0.76917731     0.19700
C2010       C  0.73935208  0.71389035  0.77047569     0.01800
C2011       C  0.75901093  0.72875016  0.76130719    -0.14200
C2012       C  0.74794525  0.71438162  0.75127739    -0.12000
C2013       C  0.71707481  0.68482312  0.75006528     0.01300
C2014       C  0.69807459  0.66903006  0.75911011    -0.24100
H2015       H  0.80852322  0.79546899  0.79466735     0.09400
H2016       H  0.79723404  0.77185260  0.77712776     0.12900
H2017       H  0.71506837  0.71276792  0.80565519     0.11600
H2018       H  0.67944918  0.66908630  0.79435146     0.12800
H2019       H  0.66469381  0.64386607  0.77695453     0.11900
H2020       H  0.78248304  0.75203740  0.76160802     0.08900
H2021       H  0.76287619  0.72737203  0.74438607     0.12200
H2022       H  0.67408731  0.64626568  0.75825750     0.14100
C2023       C  0.80017028  0.77290091  0.81687616    -0.01400
C2024       C  0.79962348  0.74188726  0.81743170    -0.09400
C2025       C  0.82886615  0.74022786  0.81889221    -0.18300
C2026       C  0.86051122  0.76972487  0.81972173     0.04100
C2027       C  0.86125613  0.80097626  0.81953596     0.18300
C2028       C  0.83180733  0.80229897  0.81813219    -0.19700
C2029       C  0.89175096  0.83116919  0.82026696    -0.21000
C2030       C  0.92160810  0.83111678  0.82072246    -0.19500
C2031       C  0.92203420  0.80087794  0.82037751     0.19700
C2032       C  0.89158718  0.76972794  0.82016914     0.01800
C2033       C  0.89395309  0.74026659  0.82029038    -0.14200
C2034       C  0.92492445  0.74186711  0.81935858    -0.12000
C2035       C  0.95520596  0.77275540  0.81801336     0.01300
C2036       C  0.95294279  0.80199414  0.81977200    -0.24100
H2037       H  0.77650994  0.71860085  0.81612481     0.09400
H2038       H  0.82617907  0.71550441  0.81890736     0.12900
H2039       H  0.83464829  0.82699846  0.81730952     0.11600
H2040       H  0.89262091  0.85518838  0.82021255     0.12800
H2041       H  0.94465930  0.85508059  0.82097446     0.11900
H2042       H  0.87212588  0.71556010  0.82088940     0.08900
H2043       H  0.92472179  0.71830604  0.81962745     0.12200
H2044       H  0.97491613  0.82637777  0.82037397     0.14100
C2045       C  0.77633047  0.81185888  0.81245958    -0.01400
C2046       C  0.78258977  0.82977226  0.82203315    -0.09400
C2047       C  0.78556123  0.86169296  0.82243069    -0.18300
C2048       C  0.78148107  0.87700569  0.81325425     0.04100
C2049       C  0.77475921  0.85905060  0.80360404     0.18300
C2050       C  0.77242474  0.82729647  0.80327099    -0.19700
C2051       C  0.76914653  0.87231820  0.79432821    -0.21000
C2052       C  0.76866324  0.90228633  0.79451539    -0.19500
C2053       C  0.77435382  0.92017829  0.80394871     0.19700
C2054       C  0.78221394  0.90865368  0.81334412     0.01800
C2055       C  0.79122846  0.92983884  0.82226216    -0.14200
C2056       C  0.78964050  0.95960189  0.82204192    -0.12000
C2057       C  0.77647209  0.96837002  0.81329588     0.01300
C2058       C  0.77197258  0.94948262  0.80396527    -0.24100
H2059       H  0.78461640  0.81848641  0.82935226     0.09400
H2060       H  0.78976335  0.87327954  0.83010374     0.12900
H2061       H  0.76524114  0.81400669  0.79586008     0.11600
H2062       H  0.76419684  0.85895315  0.78690682     0.12800
H2063       H  0.76330750  0.91128163  0.78723462     0.11900
H2064       H  0.80061365  0.92451456  0.82939381     0.08900
H2065       H  0.79984997  0.97633372  0.82870564     0.12200
H2066       H  0.76727005  0.95747993  0.79642985     0.14100
C2067       C  0.73621687  0.75541032  0.81961582    -0.01400
C2068       C  0.73002577  0.73178991  0.82780013    -0.09400
C2069       C  0.69783396  0.71229524  0.83232805    -0.18300
C2070       C  0.67107110  0.71705389  0.82927364     0.04100
C2071       C  0.67813451  0.74252849  0.82162109     0.18300
C2072       C  0.70931745  0.75991295  0.81669525    -0.19700
C2073       C  0.65405410  0.75089728  0.81886012    -0.21000
C2074       C  0.62324469  0.73521428  0.82379124    -0.19500
C2075       C  0.61493983  0.70942312  0.83122648     0.19700
C2076       C  0.63793793  0.69871921  0.83370928     0.01800
C2077       C  0.62628595  0.67006141  0.84035608    -0.14200
C2078       C  0.59440531  0.65504877  0.84509612    -0.12000
C2079       C  0.57357489  0.66930796  0.84406692     0.01300
C2080       C  0.58397248  0.69529040  0.83639082    -0.24100
H2081       H  0.74952706  0.72750633  0.83059241     0.09400
H2082       H  0.69455164  0.69421037  0.83841346     0.12900
H2083       H  0.71253590  0.77719407  0.81031590     0.11600
H2084       H  0.65945252  0.77054850  0.81306284     0.12800
H2085       H  0.60573651  0.74332843  0.82174713     0.11900
H2086       H  0.64153266  0.65903783  0.84203719     0.08900
H2087       H  0.58727668  0.63379750  0.85037942     0.12200
H2088       H  0.56908323  0.70605816  0.83435684     0.14100
C2089       C  0.62651869  0.62346210  0.97148664    -0.01400
C2090       C  0.60364544  0.63169694  0.97559101    -0.09400
C2091       C  0.59757532  0.62968582  0.98646428    -0.18300
C2092       C  0.61435555  0.61927209  0.99351946     0.04100
C2093       C  0.63364567  0.60625840  0.98911321     0.18300
C2094       C  0.63992451  0.60887498  0.97816805    -0.19700
C2095       C  0.64860278  0.59316013  0.99573661    -0.21000
C2096       C  0.64762254  0.59583460  0.00667488    -0.19500
C2097       C  0.63266272  0.61269745  0.01117954     0.19700
C2098       C  0.61485705  0.62370196  0.00470994     0.01800
C2099       C  0.60118693  0.64163389  0.00959314    -0.14200
C2100       C  0.60771773  0.65103349  0.02020388    -0.12000
C2101       C  0.62707190  0.64196799  0.02634912     0.01300
C2102       C  0.63780824  0.62112565  0.02195698    -0.24100
H2103       H  0.59254008  0.64244091  0.97050336     0.09400
H2104       H  0.58076743  0.63778435  0.98914763     0.12900
H2105       H  0.65706733  0.60173665  0.97495069     0.11600
H2106       H  0.66246051  0.58221519  0.99243012     0.12800
H2107       H  0.66069381  0.58680471  0.01158309     0.11900
H2108       H  0.58723539  0.65070182  0.00526643     0.08900
H2109       H  0.59875701  0.66671250  0.02348703     0.12200
H2110       H  0.65267011  0.61384137  0.02669345     0.14100
C2111       C  0.63208894  0.65304340  0.91289899    -0.01400
C2112       C  0.60053767  0.62594261  0.91046502    -0.09400
C2113       C  0.58552967  0.62479069  0.90070551    -0.18300
C2114       C  0.60174315  0.65098919  0.89309668     0.04100
C2115       C  0.63387264  0.67812977  0.89565021     0.18300
C2116       C  0.64865954  0.67871769  0.90537134    -0.19700
C2117       C  0.65096895  0.70507849  0.88859087    -0.21000
C2118       C  0.63663429  0.70609109  0.87906872    -0.19500
C2119       C  0.60500319  0.67999471  0.87630853     0.19700
C2120       C  0.58725321  0.65177278  0.88314944     0.01800
C2121       C  0.55598522  0.62570088  0.87968081    -0.14200
C2122       C  0.54260993  0.62798358  0.86997154    -0.12000
C2123       C  0.55933581  0.65689673  0.86340674     0.01300
C2124       C  0.59108685  0.68231032  0.86672044    -0.24100
H2125       H  0.58704356  0.60603225  0.91622592     0.09400
H2126       H  0.56099114  0.60353470  0.89943715     0.12900
H2127       H  0.67298265  0.69994561  0.90720158     0.11600
H2128       H  0.67547207  0.72580824  0.89051409     0.12800
H2129       H  0.65038422  0.72755587  0.87383251     0.11900
H2130       H  0.54141900  0.60297593  0.88425247     0.08900
H2131       H  0.51903657  0.60660197  0.86776801     0.12200
H2132       H  0.60492764  0.70449573  0.86175744     0.14100
C2133       C  0.59751055  0.99070522  0.97210196    -0.01400
C2134       C  0.57630606  0.96100972  0.97767190    -0.09400
C2135       C  0.56970462  0.96176315  0.98842543    -0.18300
C2136       C  0.58483208  0.99242238  0.99405020     0.04100
C2137       C  0.60432519  0.02272892  0.98817321     0.18300
C2138       C  0.61024527  0.02162956  0.97729142    -0.19700
C2139       C  0.61926167  0.05383763  0.99330372    -0.21000
C2140       C  0.61711727  0.05541971  0.00424362    -0.19500
C2141       C  0.60037639  0.02591546  0.01034142     0.19700
C2142       C  0.58306708  0.99400384  0.00533859     0.01800
C2143       C  0.56681423  0.96502094  0.01192242    -0.14200
C2144       C  0.57051276  0.96749416  0.02293745    -0.12000
C2145       C  0.58986102  0.99885654  0.02774449     0.01300
C2146       C  0.60301059  0.02805272  0.02143256    -0.24100
H2147       H  0.56565831  0.93685128  0.97377822     0.09400
H2148       H  0.55361620  0.93781371  0.99218872     0.12900
H2149       H  0.62654296  0.04477029  0.97302729     0.11600
H2150       H  0.63374340  0.07707025  0.98886968     0.12800
H2151       H  0.63004095  0.07984758  0.00800571     0.11900
H2152       H  0.55261307  0.93994664  0.00878465     0.08900
H2153       H  0.55982584  0.94457629  0.02764434     0.12200
H2154       H  0.61779690  0.05249212  0.02508566     0.14100
C2155       C  0.65066643  0.90364465  0.94504302    -0.01400
C2156       C  0.68222591  0.90778239  0.94679018    -0.09400
C2157       C  0.68655204  0.87986575  0.94750939    -0.18300
C2158       C  0.65920979  0.84673976  0.94651838     0.04100
C2159       C  0.62725353  0.84284200  0.94473059     0.18300
C2160       C  0.62332653  0.87110567  0.94400970    -0.19700
C2161       C  0.59932102  0.81075374  0.94363090    -0.21000
C2162       C  0.60238173  0.78227424  0.94417997    -0.19500
C2163       C  0.63344472  0.78518294  0.94585760     0.19700
C2164       C  0.66234804  0.81737480  0.94712683     0.01800
C2165       C  0.69305744  0.81863706  0.94883375    -0.14200
C2166       C  0.69502298  0.78924504  0.94892163    -0.12000
C2167       C  0.66651888  0.75777715  0.94743514     0.01300
C2168       C  0.63576580  0.75594774  0.94608680    -0.24100
H2169       H  0.70374228  0.93275662  0.94758480     0.09400
H2170       H  0.71157987  0.88506604  0.94881885     0.12900
H2171       H  0.59880186  0.86771035  0.94265369     0.11600
H2172       H  0.57492576  0.80765806  0.94227760     0.12800
H2173       H  0.58028908  0.75777247  0.94321462     0.11900
H2174       H  0.71605118  0.84193701  0.94999007     0.08900
H2175       H  0.71903172  0.79120796  0.95000983     0.12200
H2176       H  0.61354040  0.73165641  0.94491793     0.14100
C2177       C  0.59564731  0.97154744  0.91301883    -0.01400
C2178       C  0.61709161  0.98879751  0.90458015    -0.09400
C2179       C  0.60720211  0.97956021  0.89415623    -0.18300
C2180       C  0.57547030  0.95191561  0.89178403     0.04100
C2181       C  0.55293597  0.93556719  0.90030777     0.18300
C2182       C  0.56297439  0.94591255  0.91084123    -0.19700
C2183       C  0.52140841  0.90771731  0.89828170    -0.21000
C2184       C  0.51290387  0.89416694  0.88812683    -0.19500
C2185       C  0.53557283  0.90837731  0.87972785     0.19700
C2186       C  0.56638113  0.93845042  0.88136954     0.01800
C2187       C  0.58744677  0.95314509  0.87257464    -0.14200
C2188       C  0.58046006  0.93659055  0.86295338    -0.12000
C2189       C  0.55214403  0.90431686  0.86155044     0.01300
C2190       C  0.52836043  0.89210983  0.86981618    -0.24100
H2191       H  0.64230869  0.00888036  0.90606894     0.09400
H2192       H  0.62575155  0.99347085  0.88820212     0.12900
H2193       H  0.54627327  0.93235973  0.91735022     0.11600
H2194       H  0.50380733  0.89536059  0.90468187     0.12800
H2195       H  0.48894420  0.87169148  0.88692829     0.11900
H2196       H  0.60981416  0.97742303  0.87286110     0.08900
H2197       H  0.59782047  0.94989825  0.85660631     0.12200
H2198       H  0.50499134  0.86886194  0.86869694     0.14100
C2199       C  0.38070309  0.99744696  0.97413876    -0.01400
C2200       C  0.39846161  0.02957195  0.97860148    -0.09400
C2201       C  0.40169191  0.03348775  0.98960054    -0.18300
C2202       C  0.38650604  0.00519185  0.99649060     0.04100
C2203       C  0.37120519  0.97267856  0.99185635     0.18300
C2204       C  0.36907026  0.96916007  0.98079867    -0.19700
C2205       C  0.35582397  0.94375821  0.99825311    -0.21000
C2206       C  0.35323086  0.94631378  0.00911917    -0.19500
C2207       C  0.36608401  0.97785622  0.01386342     0.19700
C2208       C  0.38389180  0.00783096  0.00770040     0.01800
C2209       C  0.39635757  0.03900164  0.01294586    -0.14200
C2210       C  0.38895272  0.04021415  0.02360637    -0.12000
C2211       C  0.36966436  0.01054505  0.02943886     0.01300
C2212       C  0.35956178  0.97949886  0.02463392    -0.24100
H2213       H  0.40798481  0.05184428  0.97362125     0.09400
H2214       H  0.41462459  0.05897482  0.99246539     0.12900
H2215       H  0.35551219  0.94416359  0.97742173     0.11600
H2216       H  0.34439204  0.91891596  0.99477310     0.12800
H2217       H  0.33992698  0.92339245  0.01378718     0.11900
H2218       H  0.41074938  0.06285869  0.00892824     0.08900
H2219       H  0.39737315  0.06451890  0.02719878     0.12200
H2220       H  0.34462717  0.95639725  0.02909574     0.14100
C2221       C  0.33323704  0.90130992  0.86256785    -0.01400
C2222       C  0.36001598  0.90721894  0.86922228    -0.09400
C2223       C  0.36295368  0.92007993  0.87942691    -0.18300
C2224       C  0.33890494  0.92710704  0.88353804     0.04100
C2225       C  0.31058602  0.91873142  0.87719010     0.18300
C2226       C  0.30762714  0.90522499  0.86704503    -0.19700
C2227       C  0.28550686  0.92434271  0.88092083    -0.21000
C2228       C  0.28780709  0.93789490  0.89089089    -0.19500
C2229       C  0.31530940  0.94629505  0.89737249     0.19700
C2230       C  0.34151661  0.94146690  0.89377366     0.01800
C2231       C  0.36900434  0.95109332  0.90061720    -0.14200
C2232       C  0.36950365  0.96321596  0.91080205    -0.12000
C2233       C  0.34294038  0.96654950  0.91443180     0.01300
C2234       C  0.31634256  0.95883030  0.90754884    -0.24100
H2235       H  0.37912514  0.90206460  0.86667359     0.09400
H2236       H  0.38438637  0.92422074  0.88392211     0.12900
H2237       H  0.28598535  0.89948920  0.86229376     0.11600
H2238       H  0.26389317  0.91814024  0.87609654     0.12800
H2239       H  0.26781019  0.94164572  0.89357768     0.11900
H2240       H  0.39029484  0.94914808  0.89837762     0.08900
H2241       H  0.39044684  0.96932341  0.91593341     0.12200
H2242       H  0.29570181  0.96153818  0.91023856     0.14100
C2243       C  0.32522379  0.33494912  0.97054213    -0.01400
C2244       C  0.34402657  0.32467199  0.97644810    -0.09400
C2245       C  0.34893328  0.33109701  0.98726352    -0.18300
C2246       C  0.33437589  0.34742702  0.99261303     0.04100
C2247       C  0.31657180  0.35923764  0.98648271     0.18300
C2248       C  0.31252345  0.35329200  0.97552008    -0.19700
C2249       C  0.30158615  0.37544694  0.99141142    -0.21000
C2250       C  0.30236987  0.37858177  0.00237356    -0.19500
C2251       C  0.31814384  0.36557268  0.00866947     0.19700
C2252       C  0.33529268  0.35077486  0.00386333     0.01800
C2253       C  0.35111859  0.33834605  0.01057272    -0.14200
C2254       C  0.34754262  0.33789118  0.02153274    -0.12000
C2255       C  0.32855317  0.35018044  0.02619136     0.01300
C2256       C  0.31523569  0.36547141  0.01975532    -0.24100
H2257       H  0.35420987  0.31063807  0.97273807     0.09400
H2258       H  0.36325299  0.32184491  0.99125012     0.12900
H2259       H  0.29770767  0.36111417  0.97099248     0.11600
H2260       H  0.28822090  0.38477571  0.98678745     0.12800
H2261       H  0.28955792  0.39022499  0.00597308     0.11900
H2262       H  0.36538789  0.32759386  0.00761574     0.08900
H2263       H  0.35838951  0.32629280  0.02635185     0.12200
H2264       H  0.30065905  0.37524624  0.02331931     0.14100
C2265       C  0.29661279  0.20876332  0.94045021    -0.01400
C2266       C  0.26920585  0.17757008  0.94325199    -0.09400
C2267       C  0.27173452  0.14860687  0.94355478    -0.18300
C2268       C  0.30209929  0.15004932  0.94115049     0.04100
C2269       C  0.32947225  0.18161583  0.93792922     0.18300
C2270       C  0.32647415  0.21050098  0.93758906    -0.19700
C2271       C  0.35989038  0.18433895  0.93525409    -0.21000
C2272       C  0.36403828  0.15649980  0.93594347    -0.19500
C2273       C  0.33794284  0.12533246  0.93940129     0.19700
C2274       C  0.30649765  0.12153928  0.94200106     0.01800
C2275       C  0.28111821  0.08956496  0.94557433    -0.14200
C2276       C  0.28689532  0.06271935  0.94662460    -0.12000
C2277       C  0.31791383  0.06668131  0.94407289     0.01300
C2278       C  0.34327115  0.09797967  0.94039616    -0.24100
H2279       H  0.24568770  0.17555026  0.94532665     0.09400
H2280       H  0.24956114  0.12560808  0.94579989     0.12900
H2281       H  0.34769050  0.23454485  0.93530270     0.11600
H2282       H  0.38075753  0.20827613  0.93272145     0.12800
H2283       H  0.38800651  0.15949882  0.93391048     0.11900
H2284       H  0.25663484  0.08449981  0.94773123     0.08900
H2285       H  0.26684633  0.03863625  0.94940712     0.12200
H2286       H  0.36734152  0.10116472  0.93838455     0.14100
C2287       C  0.31324204  0.34224863  0.91195705    -0.01400
C2288       C  0.34191650  0.37321953  0.90982495    -0.09400
C2289       C  0.34571867  0.38962824  0.90006246    -0.18300
C2290       C  0.32056845  0.37553260  0.89221502     0.04100
C2291       C  0.29178745  0.34396562  0.89449601     0.18300
C2292       C  0.28873254  0.32760705  0.90414750    -0.19700
C2293       C  0.26557981  0.32912402  0.88726650    -0.21000
C2294       C  0.26682562  0.34541601  0.87786653    -0.19500
C2295       C  0.29464422  0.37656378  0.87536413     0.19700
C2296       C  0.32228395  0.39176627  0.88232209     0.01800
C2297       C  0.35023700  0.42239007  0.87903019    -0.14200
C2298       C  0.35021202  0.43781286  0.86941826    -0.12000
C2299       C  0.32185265  0.42396846  0.86282559     0.01300
C2300       C  0.29459995  0.39259860  0.86592316    -0.24100
H2301       H  0.36111269  0.38506654  0.91577594     0.09400
H2302       H  0.36809143  0.41366856  0.89899090     0.12900
H2303       H  0.26636655  0.30366230  0.90571337     0.11600
H2304       H  0.24360095  0.30504302  0.88899766     0.12800
H2305       H  0.24580439  0.33357916  0.87252118     0.11900
H2306       H  0.37269431  0.43480672  0.88366614     0.08900
H2307       H  0.37279467  0.46069941  0.86731921     0.12200
H2308       H  0.27258402  0.38080904  0.86099624     0.14100
C2309       C  0.97011753  0.35848395  0.96784370    -0.01400
C2310       C  0.99889061  0.38191155  0.97318195    -0.09400
C2311       C  0.99791297  0.38780831  0.98398604    -0.18300
C2312       C  0.96807089  0.36963170  0.98986539     0.04100
C2313       C  0.93858935  0.34745864  0.98423418     0.18300
C2314       C  0.93977007  0.34265807  0.97330770    -0.19700
C2315       C  0.90845205  0.32845165  0.98964355    -0.21000
C2316       C  0.90730580  0.32920544  0.00061988    -0.19500
C2317       C  0.93620607  0.34924637  0.00644704     0.19700
C2318       C  0.96676678  0.37082027  0.00116960     0.01800
C2319       C  0.99499217  0.39106086  0.00749508    -0.14200
C2320       C  0.99359930  0.38744450  0.01852450    -0.12000
C2321       C  0.96404533  0.36398110  0.02358405     0.01300
C2322       C  0.93508528  0.34625237  0.01753228    -0.24100
H2323       H  0.02260578  0.39463559  0.96909649     0.09400
H2324       H  0.02122542  0.40545571  0.98760293     0.12900
H2325       H  0.91738756  0.32443068  0.96923888     0.11600
H2326       H  0.88585957  0.31172088  0.98539040     0.12800
H2327       H  0.88385727  0.31303457  0.00459856     0.11900
H2328       H  0.01879382  0.40893094  0.00413918     0.08900
H2329       H  0.01621334  0.40179494  0.02305087     0.12200
H2330       H  0.91198009  0.32832681  0.02139584     0.14100
C2331       C  0.19286742  0.27523750  0.94424516    -0.01400
C2332       C  0.16967062  0.25786859  0.93628785    -0.09400
C2333       C  0.13926123  0.25697899  0.93612839    -0.18300
C2334       C  0.13121485  0.27341555  0.94402193     0.04100
C2335       C  0.15408459  0.28895429  0.95247021     0.18300
C2336       C  0.18465474  0.28996991  0.95245028    -0.19700
C2337       C  0.14681455  0.30433223  0.96072201    -0.21000
C2338       C  0.11776380  0.30580882  0.96057635    -0.19500
C2339       C  0.09567071  0.29251908  0.95207254     0.19700
C2340       C  0.10186625  0.27586766  0.94370104     0.01800
C2341       C  0.07916877  0.26376146  0.93515913    -0.14200
C2342       C  0.05225160  0.26915582  0.93477493    -0.12000
C2343       C  0.04677237  0.28615987  0.94294191     0.01300
C2344       C  0.06804425  0.29698819  0.95169702    -0.24100
H2345       H  0.17563336  0.24615713  0.92991110     0.09400
H2346       H  0.12286037  0.24367053  0.92965369     0.12900
H2347       H  0.20250283  0.30301087  0.95870970     0.11600
H2348       H  0.16399251  0.31581126  0.96724461     0.12800
H2349       H  0.11306548  0.31838088  0.96699637     0.11900
H2350       H  0.08210366  0.25104358  0.92848453     0.08900
H2351       H  0.03599963  0.26052608  0.92794565     0.12200
H2352       H  0.06398488  0.31034336  0.95802372     0.14100
C2353       C  0.72802669  0.07473350  0.94151925    -0.01400
C2354       C  0.72975259  0.10425149  0.93771475    -0.09400
C2355       C  0.76020649  0.13425461  0.93692863    -0.18300
C2356       C  0.79024596  0.13580231  0.93995558     0.04100
C2357       C  0.78842769  0.10567810  0.94373866     0.18300
C2358       C  0.75753816  0.07558098  0.94446362    -0.19700
C2359       C  0.81741206  0.10585848  0.94686502    -0.21000
C2360       C  0.84814248  0.13549298  0.94652754    -0.19500
C2361       C  0.85074437  0.16570016  0.94298824     0.19700
C2362       C  0.82189326  0.16619778  0.93950800     0.01800
C2363       C  0.82597219  0.19721213  0.93582249    -0.14200
C2364       C  0.85710552  0.22654419  0.93584385    -0.12000
C2365       C  0.88533014  0.22617934  0.93949996     0.01300
C2366       C  0.88201470  0.19553128  0.94298248    -0.24100
H2367       H  0.70735210  0.10423481  0.93535084     0.09400
H2368       H  0.75928177  0.15582685  0.93399234     0.12900
H2369       H  0.75648079  0.05279224  0.94736983     0.11600
H2370       H  0.81626317  0.08297511  0.94970685     0.12800
H2371       H  0.87001684  0.13481915  0.94912214     0.11900
H2372       H  0.80559662  0.19976414  0.93289756     0.08900
H2373       H  0.85900916  0.24978813  0.93303398     0.12200
H2374       H  0.90376605  0.19490266  0.94575334     0.14100
C2375       C  0.01020238  0.37311550  0.91235346    -0.01400
C2376       C  0.04181652  0.40214667  0.91186317    -0.09400
C2377       C  0.05612066  0.41724564  0.90209084    -0.18300
C2378       C  0.03919646  0.40349052  0.89246053     0.04100
C2379       C  0.00684804  0.37449126  0.89308876     0.18300
C2380       C  0.99265754  0.36002444  0.90292700    -0.19700
C2381       C  0.98917920  0.35917270  0.88386794    -0.21000
C2382       C  0.00349752  0.37098212  0.87399232    -0.19500
C2383       C  0.03562875  0.39880351  0.87307496     0.19700
C2384       C  0.05351329  0.41637471  0.88222428     0.01800
C2385       C  0.08479840  0.44585082  0.88064149    -0.14200
C2386       C  0.09883480  0.45542797  0.87047446    -0.12000
C2387       C  0.08327743  0.43489740  0.86162748     0.01300
C2388       C  0.05018045  0.40843603  0.86301006    -0.24100
H2389       H  0.05604259  0.41258071  0.91903509     0.09400
H2390       H  0.08088207  0.43888492  0.90227220     0.12900
H2391       H  0.96826710  0.33751704  0.90320328     0.11600
H2392       H  0.96446587  0.33719464  0.88429743     0.12800
H2393       H  0.98954705  0.35779069  0.86701475     0.11900
H2394       H  0.09899851  0.46180568  0.88712105     0.08900
H2395       H  0.12307835  0.47782777  0.86961399     0.12200
H2396       H  0.03551939  0.39449018  0.85624646     0.14100
C2397       C  0.98863992  0.61584486  0.97268627    -0.01400
C2398       C  0.95771755  0.59761635  0.97773655    -0.09400
C2399       C  0.95559412  0.59534381  0.98880459    -0.18300
C2400       C  0.98452000  0.61191542  0.99515560     0.04100
C2401       C  0.01587164  0.62741601  0.98993312     0.18300
C2402       C  0.01762017  0.62886623  0.97882829    -0.19700
C2403       C  0.04535302  0.64346046  0.99579296    -0.21000
C2404       C  0.04445048  0.64652906  0.00670166    -0.19500
C2405       C  0.01405885  0.63397694  0.01199808     0.19700
C2406       C  0.98358272  0.61561152  0.00638025     0.01800
C2407       C  0.95363965  0.60391619  0.01213568    -0.14200
C2408       C  0.95407964  0.61249791  0.02276088    -0.12000
C2409       C  0.98424036  0.63240352  0.02804232     0.01300
C2410       C  0.01408023  0.64166409  0.02274587    -0.24100
H2411       H  0.93498006  0.58690699  0.97315982     0.09400
H2412       H  0.93093760  0.58181253  0.99215415     0.12900
H2413       H  0.04173406  0.64267833  0.97499316     0.11600
H2414       H  0.06933031  0.65492577  0.99186240     0.12800
H2415       H  0.06774398  0.66023055  0.01095240     0.11900
H2416       H  0.92951451  0.58949597  0.00852132     0.08900
H2417       H  0.93065659  0.60481287  0.02671074     0.12200
H2418       H  0.03754168  0.65697337  0.02678119     0.14100
C2419       C  0.08625039  0.74713439  0.94868828    -0.01400
C2420       C  0.11500760  0.74472547  0.94804668    -0.09400
C2421       C  0.14638373  0.77308376  0.94912259    -0.18300
C2422       C  0.15012625  0.80515060  0.95081501     0.04100
C2423       C  0.12082652  0.80729852  0.95193143     0.18300
C2424       C  0.08924051  0.77839156  0.95083096    -0.19700
C2425       C  0.12328017  0.83835328  0.95398032    -0.21000
C2426       C  0.15423261  0.86750620  0.95468934    -0.19500
C2427       C  0.18345788  0.86640255  0.95317131     0.19700
C2428       C  0.18184933  0.83517461  0.95124815     0.01800
C2429       C  0.21202114  0.83552719  0.94946054    -0.14200
C2430       C  0.24230647  0.86566714  0.94927863    -0.12000
C2431       C  0.24367960  0.89635466  0.95099851     0.01300
C2432       C  0.21427281  0.89652931  0.95318957    -0.24100
H2433       H  0.11333285  0.72071573  0.94659213     0.09400
H2434       H  0.16714614  0.76897271  0.94854443     0.12900
H2435       H  0.06703815  0.78033587  0.95146749     0.11600
H2436       H  0.10109829  0.84016461  0.95494118     0.12800
H2437       H  0.15528992  0.89121994  0.95617611     0.11900
H2438       H  0.21309084  0.81312531  0.94785124     0.08900
H2439       H  0.26475120  0.86496468  0.94756342     0.12200
H2440       H  0.21519344  0.92029008  0.95446345     0.14100
C2441       C  0.75982650  0.67164703  0.94205033    -0.01400
C2442       C  0.78861100  0.69924153  0.94612289    -0.09400
C2443       C  0.81891362  0.69979094  0.94621801    -0.18300
C2444       C  0.82150496  0.67254871  0.94220175     0.04100
C2445       C  0.79226438  0.64472314  0.93798266     0.18300
C2446       C  0.76189925  0.64450037  0.93795846    -0.19700
C2447       C  0.79342399  0.61714757  0.93386814    -0.21000
C2448       C  0.82289657  0.61633600  0.93396327    -0.19500
C2449       C  0.85201458  0.64307311  0.93818036     0.19700
C2450       C  0.85187391  0.67172352  0.94229553     0.01800
C2451       C  0.88209566  0.69810896  0.94638979    -0.14200
C2452       C  0.91095709  0.69585796  0.94652914    -0.12000
C2453       C  0.91082585  0.66739225  0.94259917     0.01300
C2454       C  0.88126250  0.64117591  0.93836940    -0.24100
H2455       H  0.78769921  0.72053707  0.94934359     0.09400
H2456       H  0.83978714  0.72184869  0.94953786     0.12900
H2457       H  0.73977621  0.62303330  0.93478009     0.11600
H2458       H  0.77129395  0.59591867  0.93060407     0.12800
H2459       H  0.82285301  0.59449425  0.93077129     0.11900
H2460       H  0.88426172  0.72077998  0.94958888     0.08900
H2461       H  0.93350976  0.71652763  0.94979089     0.12200
H2462       H  0.88093124  0.61909227  0.93525525     0.14100
C2463       C  0.02074940  0.64955433  0.91286229    -0.01400
C2464       C  0.02506475  0.62299331  0.90955695    -0.09400
C2465       C  0.04016041  0.62465215  0.89978462    -0.18300
C2466       C  0.05190065  0.65335209  0.89308179     0.04100
C2467       C  0.04692631  0.67990948  0.89646722     0.18300
C2468       C  0.03128846  0.67761656  0.90615893    -0.19700
C2469       C  0.05798131  0.70895666  0.89024192    -0.21000
C2470       C  0.07369843  0.71219084  0.88062380    -0.19500
C2471       C  0.07858949  0.68637965  0.87695509     0.19700
C2472       C  0.06809728  0.65671896  0.88312911     0.01800
C2473       C  0.07422644  0.63184020  0.87901789    -0.14200
C2474       C  0.08746574  0.63497947  0.86884308    -0.12000
C2475       C  0.09496507  0.66299798  0.86230709     0.01300
C2476       C  0.09285175  0.68969684  0.86692869    -0.24100
H2477       H  0.01724571  0.60111260  0.91461193     0.09400
H2478       H  0.04263006  0.60329245  0.89774462     0.12900
H2479       H  0.02827449  0.69846121  0.90864112     0.11600
H2480       H  0.05436334  0.72932768  0.89281944     0.12800
H2481       H  0.08164274  0.73487213  0.87594131     0.11900
H2482       H  0.06848757  0.60933672  0.88341224     0.08900
H2483       H  0.09121411  0.61487770  0.86617188     0.12200
H2484       H  0.09985835  0.71223202  0.86226191     0.14100
C2485       C  0.28388800  0.97086209  0.36089618    -0.01400
C2486       C  0.29669338  0.95343977  0.35544700    -0.09400
C2487       C  0.29019119  0.94643393  0.34466989    -0.18300
C2488       C  0.27100602  0.95723831  0.33894201     0.04100
C2489       C  0.25702700  0.97372710  0.34464269     0.18300
C2490       C  0.26319778  0.97994049  0.35551351    -0.19700
C2491       C  0.23826191  0.98541035  0.33937630    -0.21000
C2492       C  0.23461413  0.98284242  0.32844911    -0.19500
C2493       C  0.24938788  0.96824716  0.32253090     0.19700
C2494       C  0.26676063  0.95408630  0.32770474     0.01800
C2495       C  0.28056640  0.93901966  0.32132332    -0.14200
C2496       C  0.28018419  0.94118343  0.31028620    -0.12000
C2497       C  0.26554247  0.95779320  0.30526876     0.01300
C2498       C  0.24861769  0.96961755  0.31142344    -0.24100
H2499       H  0.31264134  0.94602988  0.35945904     0.09400
H2500       H  0.30151331  0.93360906  0.34097951     0.12900
H2501       H  0.25319770  0.99345518  0.35967459     0.11600
H2502       H  0.22734404  0.99776572  0.34369363     0.12800
H2503       H  0.22104726  0.99335697  0.32456452     0.11900
H2504       H  0.29301897  0.92661848  0.32461236     0.08900
H2505       H  0.29300448  0.93138533  0.30568053     0.12200
H2506       H  0.23702091  0.98231210  0.30759943     0.14100
C2507       C  0.27740492  0.34122239  0.36054775    -0.01400
C2508       C  0.28801927  0.37140641  0.35497276    -0.09400
C2509       C  0.28279427  0.37131229  0.34407268    -0.18300
C2510       C  0.26721839  0.34081468  0.33834885     0.04100
C2511       C  0.25473068  0.31016308  0.34417600     0.18300
C2512       C  0.25951985  0.31063409  0.35517431    -0.19700
C2513       C  0.23924310  0.27926395  0.33892170    -0.21000
C2514       C  0.23798574  0.27818035  0.32792973    -0.19500
C2515       C  0.25194750  0.30796150  0.32193590     0.19700
C2516       C  0.26548421  0.33966165  0.32703835     0.01800
C2517       C  0.27841061  0.36886885  0.32056654    -0.14200
C2518       C  0.28082004  0.36687361  0.30960104    -0.12000
C2519       C  0.27017537  0.33581423  0.30473805     0.01300
C2520       C  0.25426474  0.30632461  0.31088964    -0.24100
H2521       H  0.30165931  0.39535053  0.35897573     0.09400
H2522       H  0.29251402  0.39559672  0.34030105     0.12900
H2523       H  0.25111900  0.28712273  0.35944157     0.11600
H2524       H  0.22930252  0.25579706  0.34332569     0.12800
H2525       H  0.22714066  0.25391368  0.32408616     0.11900
H2526       H  0.28804648  0.39373844  0.32376250     0.08900
H2527       H  0.29281425  0.38999512  0.30499057     0.12200
H2528       H  0.24554875  0.28212761  0.30716024     0.14100
C2529       C  0.31873339  0.09924387  0.39238290    -0.01400
C2530       C  0.34916599  0.12955561  0.39243411    -0.09400
C2531       C  0.35029028  0.16043510  0.39275356    -0.18300
C2532       C  0.32076196  0.16207019  0.39298782     0.04100
C2533       C  0.28986547  0.13119549  0.39287128     0.18300
C2534       C  0.28912383  0.10022454  0.39262240    -0.19700
C2535       C  0.25990287  0.13142276  0.39291115    -0.21000
C2536       C  0.25991034  0.16168068  0.39293984    -0.19500
C2537       C  0.28987471  0.19247509  0.39300492     0.19700
C2538       C  0.32076947  0.19317318  0.39316539     0.01800
C2539       C  0.35028788  0.22500767  0.39341088    -0.14200
C2540       C  0.34913408  0.25477351  0.39312377    -0.12000
C2541       C  0.31866577  0.25389042  0.39266488     0.01300
C2542       C  0.28910908  0.22264377  0.39277815    -0.24100
H2543       H  0.37238785  0.12946115  0.39221360     0.09400
H2544       H  0.37470191  0.18253938  0.39271103     0.12900
H2545       H  0.26543864  0.07685290  0.39252330     0.11600
H2546       H  0.23627039  0.10801936  0.39282162     0.12800
H2547       H  0.23627980  0.16098707  0.39285636     0.11900
H2548       H  0.37469477  0.22783855  0.39376743     0.08900
H2549       H  0.37228693  0.27864090  0.39318253     0.12200
H2550       H  0.26538498  0.22175951  0.39251231     0.14100
C2551       C  0.64097162  0.70122979  0.36044457    -0.01400
C2552       C  0.61058093  0.68408458  0.35507796    -0.09400
C2553       C  0.60887747  0.68778150  0.34416021    -0.18300
C2554       C  0.63789759  0.70831470  0.33815974     0.04100
C2555       C  0.66838462  0.72731563  0.34372867     0.18300
C2556       C  0.66951574  0.72419780  0.35481145    -0.19700
C2557       C  0.69794499  0.74742986  0.33812736    -0.21000
C2558       C  0.69838831  0.74686209  0.32711272    -0.19500
C2559       C  0.66913470  0.72683614  0.32142387     0.19700
C2560       C  0.63818435  0.70872456  0.32683002     0.01800
C2561       C  0.60915303  0.69035521  0.32065569    -0.14200
C2562       C  0.61119744  0.68735163  0.30972213    -0.12000
C2563       C  0.64209045  0.70254072  0.30458511     0.01300
C2564       C  0.67085073  0.72341411  0.31041408    -0.24100
H2565       H  0.58810036  0.66646153  0.35928060     0.09400
H2566       H  0.58476900  0.67276515  0.34059560     0.12900
H2567       H  0.69313357  0.73756266  0.35891128     0.11600
H2568       H  0.72120639  0.76232786  0.34229780     0.12800
H2569       H  0.72197773  0.76133264  0.32303046     0.11900
H2570       H  0.58457851  0.67721707  0.32407179     0.08900
H2571       H  0.58856177  0.67147224  0.30537038     0.12200
H2572       H  0.69483029  0.73570450  0.30646525     0.14100
C2573       C  0.57154581  0.56842202  0.39216314    -0.01400
C2574       C  0.55547775  0.55529563  0.40184804    -0.09400
C2575       C  0.52536599  0.52493337  0.40228715    -0.18300
C2576       C  0.51011192  0.50683484  0.39296097     0.04100
C2577       C  0.52733890  0.51961175  0.38320460     0.18300
C2578       C  0.55785401  0.54999627  0.38290683    -0.19700
C2579       C  0.51348519  0.50262090  0.37374719    -0.21000
C2580       C  0.48235174  0.47363625  0.37370518    -0.19500
C2581       C  0.46432152  0.46095209  0.38311868     0.19700
C2582       C  0.47804963  0.47710481  0.39291311     0.01800
C2583       C  0.45865755  0.46327199  0.40217702    -0.14200
C2584       C  0.42673877  0.43517858  0.40167497    -0.12000
C2585       C  0.41319353  0.41977120  0.39198510     0.01300
C2586       C  0.43228516  0.43252093  0.38275488    -0.24100
H2587       H  0.56572988  0.56906294  0.40911505     0.09400
H2588       H  0.51435166  0.51677985  0.41001979     0.12900
H2589       H  0.57022521  0.56003832  0.37537727     0.11600
H2590       H  0.52656273  0.51215418  0.36629684     0.12800
H2591       H  0.47206533  0.46135102  0.36622466     0.11900
H2592       H  0.46716922  0.47380535  0.40991771     0.08900
H2593       H  0.41244214  0.42568384  0.40891728     0.12200
H2594       H  0.42190286  0.42073771  0.37521506     0.14100
C2595       C  0.62135441  0.95195692  0.35862333    -0.01400
C2596       C  0.64786988  0.95285196  0.35311107    -0.09400
C2597       C  0.64618881  0.94822156  0.34213357    -0.18300
C2598       C  0.61797102  0.94314669  0.33633100     0.04100
C2599       C  0.58988040  0.93865177  0.34215493     0.18300
C2600       C  0.59169670  0.94267978  0.35318759    -0.19700
C2601       C  0.56095971  0.93269177  0.33687870    -0.21000
C2602       C  0.56034069  0.93424122  0.32590349    -0.19500
C2603       C  0.58862822  0.94180173  0.31996535     0.19700
C2604       C  0.61738422  0.94486277  0.32501507     0.01800
C2605       C  0.64508867  0.95210958  0.31855923    -0.14200
C2606       C  0.64523143  0.95908772  0.30774699    -0.12000
C2607       C  0.61784877  0.95891456  0.30307431     0.01300
C2608       C  0.58910727  0.94871750  0.30910557    -0.24100
H2609       H  0.67077304  0.95917363  0.35718498     0.09400
H2610       H  0.66796161  0.95044681  0.33835921     0.12900
H2611       H  0.57074248  0.94117011  0.35742989     0.11600
H2612       H  0.53923571  0.92855757  0.34128301     0.12800
H2613       H  0.53814686  0.93123467  0.32207083     0.11900
H2614       H  0.66758116  0.95421262  0.32172135     0.08900
H2615       H  0.66771508  0.96693255  0.30320024     0.12200
H2616       H  0.56775483  0.94830392  0.30547375     0.14100
C2617       C  0.56477324  0.02505295  0.39229970    -0.01400
C2618       C  0.56004519  0.04438757  0.38464593    -0.09400
C2619       C  0.53265302  0.04898719  0.38515905    -0.18300
C2620       C  0.50872719  0.03389569  0.39333308     0.04100
C2621       C  0.51468224  0.01587734  0.40142114     0.18300
C2622       C  0.54253490  0.01168880  0.40084601    -0.19700
C2623       C  0.49228204  0.00128339  0.40985551    -0.21000
C2624       C  0.46339552  0.00315646  0.41024086    -0.19500
C2625       C  0.45593970  0.01916286  0.40210749     0.19700
C2626       C  0.47865469  0.03509614  0.39358798     0.01800
C2627       C  0.46952936  0.05015757  0.38543882    -0.14200
C2628       C  0.43857172  0.04804411  0.38549546    -0.12000
C2629       C  0.41592815  0.03142987  0.39372356     0.01300
C2630       C  0.42517833  0.01799371  0.40218953    -0.24100
H2631       H  0.57722151  0.05541594  0.37807191     0.09400
H2632       H  0.53067929  0.06403801  0.37893263     0.12900
H2633       H  0.54620814  0.99691632  0.40686970     0.11600
H2634       H  0.49683562  0.98779402  0.41610282     0.12800
H2635       H  0.44626135  0.99107470  0.41677570     0.11900
H2636       H  0.48519719  0.06270076  0.37870171     0.08900
H2637       H  0.43197894  0.05872140  0.37889445     0.12200
H2638       H  0.40769077  0.00499593  0.40858119     0.14100
C2639       C  0.02413181  0.34025135  0.36120710    -0.01400
C2640       C  0.01902677  0.31208098  0.35549810    -0.09400
C2641       C  0.02372408  0.31405755  0.34452913    -0.18300
C2642       C  0.03273410  0.34423049  0.33889255     0.04100
C2643       C  0.04023342  0.37334040  0.34484463     0.18300
C2644       C  0.03680701  0.37130141  0.35591401    -0.19700
C2645       C  0.04827768  0.40358192  0.33966669    -0.21000
C2646       C  0.04567044  0.40463072  0.32871727    -0.19500
C2647       C  0.03594314  0.37572010  0.32269186     0.19700
C2648       C  0.03157614  0.34578847  0.32760065     0.01800
C2649       C  0.02399308  0.31805067  0.32102992    -0.14200
C2650       C  0.01696346  0.31862970  0.31029611    -0.12000
C2651       C  0.01725386  0.34672403  0.30582647     0.01300
C2652       C  0.02842941  0.37581981  0.31191168    -0.24100
H2653       H  0.00948285  0.28789946  0.35942949     0.09400
H2654       H  0.01787553  0.29096551  0.34062387     0.12900
H2655       H  0.04092675  0.39330286  0.36027727     0.11600
H2656       H  0.05450027  0.42599852  0.34415532     0.12800
H2657       H  0.04993221  0.42780803  0.32498926     0.11900
H2658       H  0.02215737  0.29515256  0.32403010     0.08900
H2659       H  0.00903020  0.29611542  0.30566110     0.12200
H2660       H  0.02948940  0.39795736  0.30839743     0.14100
C2661       C  0.72844488  0.08670632  0.38775761    -0.01400
C2662       C  0.72941682  0.11765010  0.38707280    -0.09400
C2663       C  0.75965080  0.14812751  0.38715091    -0.18300
C2664       C  0.79034949  0.14884522  0.38791602     0.04100
C2665       C  0.78934069  0.11743079  0.38864927     0.18300
C2666       C  0.75862483  0.08684093  0.38853033    -0.19700
C2667       C  0.81900901  0.11675370  0.38955981    -0.21000
C2668       C  0.84965114  0.14654293  0.38983636    -0.19500
C2669       C  0.85156666  0.17790261  0.38911596     0.19700
C2670       C  0.82193388  0.17951069  0.38805448     0.01800
C2671       C  0.82526697  0.21177159  0.38716383    -0.14200
C2672       C  0.85648739  0.24102485  0.38746079    -0.12000
C2673       C  0.88562948  0.23945389  0.38866854     0.01300
C2674       C  0.88296209  0.20769395  0.38945204    -0.24100
H2675       H  0.70655406  0.11837904  0.38651540     0.09400
H2676       H  0.75808163  0.17069521  0.38666941     0.12900
H2677       H  0.75823053  0.06309126  0.38909242     0.11600
H2678       H  0.81851291  0.09296164  0.39012498     0.12800
H2679       H  0.87205681  0.14502185  0.39061135     0.11900
H2680       H  0.80423057  0.21532118  0.38619935     0.08900
H2681       H  0.85774802  0.26515524  0.38677014     0.12200
H2682       H  0.90532696  0.20612937  0.39032496     0.14100
C2683       C  0.00794345  0.68930993  0.36073096    -0.01400
C2684       C  0.02701234  0.67853542  0.35525370    -0.09400
C2685       C  0.03296407  0.68476249  0.34439045    -0.18300
C2686       C  0.01943506  0.70157898  0.33861717     0.04100
C2687       C  0.00206315  0.71442928  0.34438789     0.18300
C2688       C  0.99683501  0.70853341  0.35533271    -0.19700
C2689       C  0.98832959  0.73145902  0.33912193    -0.21000
C2690       C  0.98951039  0.73410727  0.32815113    -0.19500
C2691       C  0.00447388  0.71981008  0.32217949     0.19700
C2692       C  0.02069508  0.70435505  0.32730742     0.01800
C2693       C  0.03563584  0.69059315  0.32084380    -0.14200
C2694       C  0.03185870  0.68944707  0.30983750    -0.12000
C2695       C  0.01368529  0.70248920  0.30491890     0.01300
C2696       C  0.00149301  0.71909343  0.31110207    -0.24100
H2697       H  0.03623615  0.66398826  0.35928950     0.09400
H2698       H  0.04711358  0.67495417  0.34067570     0.12900
H2699       H  0.98228490  0.71721748  0.35953002     0.11600
H2700       H  0.97541673  0.74165954  0.34349019     0.12800
H2701       H  0.97746220  0.74627528  0.32429021     0.11900
H2702       H  0.04915925  0.67923730  0.32407334     0.08900
H2703       H  0.04187447  0.67684055  0.30520968     0.12200
H2704       H  0.98758952  0.72947964  0.30735605     0.14100
C2705       C  0.93330466  0.54709512  0.38868512    -0.01400
C2706       C  0.93077056  0.53173794  0.37893204    -0.09400
C2707       C  0.92913741  0.50054716  0.37849317    -0.18300
C2708       C  0.93048104  0.48412864  0.38786135     0.04100
C2709       C  0.92968472  0.49840552  0.39772102     0.18300
C2710       C  0.93082264  0.52941869  0.39803301    -0.19700
C2711       C  0.92976565  0.48271817  0.40724461    -0.21000
C2712       C  0.93258114  0.45407006  0.40722914    -0.19500
C2713       C  0.93574346  0.44067605  0.39769404     0.19700
C2714       C  0.93416781  0.45508665  0.38784691     0.01800
C2715       C  0.93821041  0.44090005  0.37846827    -0.14200
C2716       C  0.94463716  0.41432624  0.37889735    -0.12000
C2717       C  0.94688970  0.40083044  0.38863758     0.01300
C2718       C  0.94175178  0.41368661  0.39798885    -0.24100
H2719       H  0.93191874  0.54468641  0.37160099     0.09400
H2720       H  0.92807763  0.49057027  0.37071832     0.12900
H2721       H  0.93201196  0.54086409  0.40562006     0.11600
H2722       H  0.92871215  0.49329389  0.41477536     0.12800
H2723       H  0.93348947  0.44302128  0.41474767     0.11900
H2724       H  0.93753868  0.45040387  0.37070035     0.08900
H2725       H  0.94851992  0.40474456  0.37155751     0.12200
H2726       H  0.94350170  0.40337544  0.40555821     0.14100
C2727       C  0.88471431  0.65699970  0.39508723    -0.01400
C2728       C  0.85511568  0.62888642  0.39857455    -0.09400
C2729       C  0.82543267  0.62953520  0.39888239    -0.18300
C2730       C  0.82428969  0.65839193  0.39552873     0.04100
C2731       C  0.85469082  0.68725575  0.39234664     0.18300
C2732       C  0.88450495  0.68643680  0.39227502    -0.19700
C2733       C  0.85502022  0.71646559  0.38893596    -0.21000
C2734       C  0.82569020  0.71745653  0.38835823    -0.19500
C2735       C  0.79526099  0.68933412  0.39123295     0.19700
C2736       C  0.79408663  0.65946014  0.39497199     0.01800
C2737       C  0.76263523  0.63184204  0.39779036    -0.14200
C2738       C  0.73368849  0.63373454  0.39678902    -0.12000
C2739       C  0.73498427  0.66313671  0.39301092     0.01300
C2740       C  0.76592813  0.69089552  0.39030079    -0.24100
H2741       H  0.85474764  0.60596177  0.40090574     0.09400
H2742       H  0.80370548  0.60679183  0.40156251     0.12900
H2743       H  0.90734886  0.70835132  0.38959732     0.11600
H2744       H  0.87808960  0.73857075  0.38652600     0.12800
H2745       H  0.82678522  0.74033573  0.38554137     0.11900
H2746       H  0.75950644  0.60835674  0.40074377     0.08900
H2747       H  0.71010268  0.61197638  0.39899814     0.12200
H2748       H  0.76719159  0.71376952  0.38738289     0.14100
C2749       C  0.03168078  0.35538936  0.41752516    -0.01400
C2750       C  0.05599838  0.38932406  0.41880762    -0.09400
C2751       C  0.06907941  0.40201427  0.42878993    -0.18300
C2752       C  0.05838678  0.38093178  0.43785688     0.04100
C2753       C  0.03604856  0.34591105  0.43635652     0.18300
C2754       C  0.02255488  0.33357979  0.42628713    -0.19700
C2755       C  0.02651308  0.32361927  0.44498052    -0.21000
C2756       C  0.03767656  0.33552939  0.45512914    -0.19500
C2757       C  0.05736220  0.37014764  0.45696266     0.19700
C2758       C  0.06807237  0.39339275  0.44837577     0.01800
C2759       C  0.08661447  0.42811646  0.45076457    -0.14200
C2760       C  0.09146200  0.43918021  0.46124579    -0.12000
C2761       C  0.07803425  0.41613336  0.46974030     0.01300
C2762       C  0.06459133  0.38170560  0.46741407    -0.24100
H2763       H  0.06382303  0.40661591  0.41213306     0.09400
H2764       H  0.08713781  0.42850833  0.42918277     0.12900
H2765       H  0.00415797  0.30717084  0.42533590     0.11600
H2766       H  0.00993722  0.29684038  0.44389203     0.12800
H2767       H  0.02940661  0.31766352  0.46166240     0.11900
H2768       H  0.09634105  0.44740390  0.44471352     0.08900
H2769       H  0.10505466  0.46602414  0.46266275     0.12200
H2770       H  0.05660492  0.36345610  0.47382781     0.14100
C2771       C  0.04755293  0.40286232  0.48763302    -0.01400
C2772       C  0.04659958  0.40353581  0.49875918    -0.09400
C2773       C  0.01616566  0.38777182  0.50434850    -0.18300
C2774       C  0.98513036  0.37017110  0.49902188     0.04100
C2775       C  0.98596645  0.36741590  0.48791292     0.18300
C2776       C  0.01635023  0.38489908  0.48239473    -0.19700
C2777       C  0.95626339  0.34818503  0.48228136    -0.21000
C2778       C  0.92555906  0.33204542  0.48746102    -0.19500
C2779       C  0.92342093  0.33620345  0.49834149     0.19700
C2780       C  0.95329179  0.35596655  0.50420594     0.01800
C2781       C  0.94996773  0.36251437  0.51483624    -0.14200
C2782       C  0.91867109  0.35009782  0.51943188    -0.12000
C2783       C  0.88875039  0.32865913  0.51397364     0.01300
C2784       C  0.89164585  0.32199154  0.50328762    -0.24100
H2785       H  0.06950991  0.41776066  0.50314645     0.09400
H2786       H  0.01761209  0.38982328  0.51285768     0.12900
H2787       H  0.01502452  0.38560225  0.47386083     0.11600
H2788       H  0.95678309  0.34553771  0.47377607     0.12800
H2789       H  0.90322234  0.31731619  0.48283835     0.11900
H2790       H  0.97119939  0.37856949  0.51966996     0.08900
H2791       H  0.91793071  0.35730369  0.52751703     0.12200
H2792       H  0.86929843  0.30720878  0.49868349     0.14100
C2793       C  0.28519259  0.41450587  0.46856801    -0.01400
C2794       C  0.27325245  0.37992591  0.46697489    -0.09400
C2795       C  0.26432273  0.36580423  0.45696006    -0.18300
C2796       C  0.26693151  0.38573759  0.44806396     0.04100
C2797       C  0.27472896  0.41941338  0.44983881     0.18300
C2798       C  0.28153514  0.43264770  0.46013292    -0.19700
C2799       C  0.27818903  0.44040891  0.44125064    -0.21000
C2800       C  0.27720342  0.42963446  0.43091135    -0.19500
C2801       C  0.27161303  0.39723795  0.42893931     0.19700
C2802       C  0.26437805  0.37417843  0.43747228     0.01800
C2803       C  0.25717193  0.34121159  0.43505923    -0.14200
C2804       C  0.26123496  0.33289462  0.42482132    -0.12000
C2805       C  0.27199697  0.35683833  0.41664577     0.01300
C2806       C  0.27526855  0.38836660  0.41859504    -0.24100
H2807       H  0.27146400  0.36352237  0.47344611     0.09400
H2808       H  0.25705323  0.33960323  0.45640912     0.12900
H2809       H  0.28756213  0.45843109  0.46137737     0.11600
H2810       H  0.28379390  0.46603538  0.44253661     0.12800
H2811       H  0.28205823  0.44716218  0.42444145     0.11900
H2812       H  0.24964534  0.32164608  0.44096266     0.08900
H2813       H  0.25763287  0.30804182  0.42342213     0.12200
H2814       H  0.28313764  0.40687532  0.41225234     0.14100
C2815       C  0.26968291  0.43361521  0.48432902    -0.01400
C2816       C  0.26909688  0.46406105  0.48398850    -0.09400
C2817       C  0.23954907  0.46483849  0.48517953    -0.18300
C2818       C  0.20851114  0.43504087  0.48655460     0.04100
C2819       C  0.20877271  0.40443990  0.48769545     0.18300
C2820       C  0.23892298  0.40392462  0.48655838    -0.19700
C2821       C  0.17862034  0.37436593  0.48949917    -0.21000
C2822       C  0.14838908  0.37407459  0.49002918    -0.19500
C2823       C  0.14708128  0.40364746  0.48840265     0.19700
C2824       C  0.17721473  0.43442992  0.48650280     0.01800
C2825       C  0.17456414  0.46283778  0.48386312    -0.14200
C2826       C  0.14362427  0.46069311  0.48288414    -0.12000
C2827       C  0.11332229  0.43092189  0.48526836     0.01300
C2828       C  0.11579313  0.40231825  0.48806420    -0.24100
H2829       H  0.29107134  0.48766999  0.48199786     0.09400
H2830       H  0.24172156  0.48929578  0.48469039     0.12900
H2831       H  0.23802321  0.37990752  0.48667416     0.11600
H2832       H  0.17835295  0.35076968  0.49042171     0.12800
H2833       H  0.12569753  0.35027159  0.49136587     0.11900
H2834       H  0.19595153  0.48669455  0.48173909     0.08900
H2835       H  0.14369719  0.48255785  0.47963252     0.12200
H2836       H  0.09316162  0.37838348  0.48926619     0.14100
C2837       C  0.31189759  0.41014556  0.48556650    -0.01400
C2838       C  0.33541917  0.40426751  0.48039424    -0.09400
C2839       C  0.34686926  0.38407752  0.48477528    -0.18300
C2840       C  0.33653355  0.36953285  0.49488052     0.04100
C2841       C  0.31431506  0.37663843  0.50054358     0.18300
C2842       C  0.30178684  0.39631265  0.49583313    -0.19700
C2843       C  0.30554239  0.36467305  0.51096723    -0.21000
C2844       C  0.31963496  0.34756093  0.51597440    -0.19500
C2845       C  0.34217543  0.34102686  0.51060369     0.19700
C2846       C  0.34936138  0.35013374  0.49980930     0.01800
C2847       C  0.36957482  0.33983802  0.49450770    -0.14200
C2848       C  0.38667588  0.32668905  0.50014205    -0.12000
C2849       C  0.38535220  0.32475377  0.51127536     0.01300
C2850       C  0.35905841  0.32723137  0.51610446    -0.24100
H2851       H  0.34443878  0.41472373  0.47258483     0.09400
H2852       H  0.36474656  0.38116550  0.48017674     0.12900
H2853       H  0.28488867  0.40132575  0.50026413     0.11600
H2854       H  0.28864028  0.36968074  0.51541840     0.12800
H2855       H  0.31353080  0.34018227  0.52420383     0.11900
H2856       H  0.37354714  0.34282697  0.48606330     0.08900
H2857       H  0.40413299  0.32197700  0.49591595     0.12200
H2858       H  0.35284032  0.32061832  0.52434805     0.14100
C2859       C  0.27624175  0.94343153  0.41614590    -0.01400
C2860       C  0.27948812  0.91474547  0.41654946    -0.09400
C2861       C  0.27639497  0.89804752  0.42616057    -0.18300
C2862       C  0.27005552  0.90977544  0.43569739     0.04100
C2863       C  0.26419905  0.93730066  0.43504932     0.18300
C2864       C  0.26707578  0.95359375  0.42533104    -0.19700
C2865       C  0.25765766  0.94986914  0.44421185    -0.21000
C2866       C  0.25976242  0.93773705  0.45411026    -0.19500
C2867       C  0.26825641  0.91263441  0.45505169     0.19700
C2868       C  0.27166565  0.89692616  0.44590410     0.01800
C2869       C  0.27777718  0.86998948  0.44745288    -0.14200
C2870       C  0.28451191  0.86215103  0.45756848    -0.12000
C2871       C  0.28718687  0.88198763  0.46636966     0.01300
C2872       C  0.27510728  0.90450107  0.46509869    -0.24100
H2873       H  0.28653995  0.90641538  0.40953192     0.09400
H2874       H  0.28082049  0.87717831  0.42596794     0.12900
H2875       H  0.26428350  0.97564400  0.42505199     0.11600
H2876       H  0.25254458  0.97039914  0.44375612     0.12800
H2877       H  0.25627692  0.94919725  0.46108834     0.11900
H2878       H  0.27825866  0.85508722  0.44098215     0.08900
H2879       H  0.28998734  0.84196818  0.45839162     0.12200
H2880       H  0.27229750  0.91705476  0.47189896     0.14100
C2881       C  0.41253867  0.28924141  0.51487420    -0.01400
C2882       C  0.44019924  0.28804345  0.51078531    -0.09400
C2883       C  0.44000698  0.25744484  0.50970489    -0.18300
C2884       C  0.41183959  0.22616932  0.51248102     0.04100
C2885       C  0.38288516  0.22682034  0.51566835     0.18300
C2886       C  0.38322659  0.25777672  0.51655407    -0.19700
C2887       C  0.35394921  0.19655184  0.51829291    -0.21000
C2888       C  0.35338152  0.16588097  0.51811994    -0.19500
C2889       C  0.38181300  0.16439152  0.51540413     0.19700
C2890       C  0.41137468  0.19441493  0.51242181     0.01800
C2891       C  0.43921771  0.19122177  0.50977514    -0.14200
C2892       C  0.43851324  0.16028670  0.51085587    -0.12000
C2893       C  0.41013189  0.13093786  0.51472065     0.01300
C2894       C  0.38110613  0.13318929  0.51608501    -0.24100
H2895       H  0.46267575  0.31077274  0.50849305     0.09400
H2896       H  0.46254576  0.25907140  0.50679880     0.12900
H2897       H  0.36101755  0.25754311  0.51926036     0.11600
H2898       H  0.33165534  0.19664022  0.52070091     0.12800
H2899       H  0.33067066  0.14318468  0.52040619     0.11900
H2900       H  0.46225923  0.21250709  0.50707457     0.08900
H2901       H  0.46079790  0.15994235  0.50873803     0.12200
H2902       H  0.35833833  0.11083325  0.51855566     0.14100
C2903       C  0.38271158  0.06818035  0.51069039    -0.01400
C2904       C  0.35386304  0.04022967  0.51505829    -0.09400
C2905       C  0.33678420  0.00937623  0.50975031    -0.18300
C2906       C  0.34708016  0.00536159  0.49965225     0.04100
C2907       C  0.37185510  0.03513401  0.49444258     0.18300
C2908       C  0.38788381  0.06651095  0.49975330    -0.19700
C2909       C  0.38232136  0.03293741  0.48425677    -0.21000
C2910       C  0.36993988  0.00184390  0.47935631    -0.19500
C2911       C  0.34661685  0.97196440  0.48446728     0.19700
C2912       C  0.33430336  0.97308816  0.49460645     0.01800
C2913       C  0.31086697  0.94176162  0.49933468    -0.14200
C2914       C  0.29985179  0.91078771  0.49411453    -0.12000
C2915       C  0.31164503  0.90978675  0.48395082     0.01300
C2916       C  0.33580487  0.94096957  0.47943469    -0.24100
H2917       H  0.34524041  0.04119063  0.52291542     0.09400
H2918       H  0.31634725  0.98872785  0.51389255     0.12900
H2919       H  0.40816218  0.08830901  0.49587416     0.11600
H2920       H  0.40106547  0.05533024  0.48017533     0.12800
H2921       H  0.37919631  0.00111532  0.47155418     0.11900
H2922       H  0.30091313  0.94047285  0.50713743     0.08900
H2923       H  0.28238813  0.88773865  0.49815004     0.12200
H2924       H  0.34571278  0.94111870  0.47166508     0.14100
C2925       C  0.03334431  0.67905293  0.41583468    -0.01400
C2926       C  0.05403643  0.66526157  0.41700064    -0.09400
C2927       C  0.06809656  0.66549936  0.42681740    -0.18300
C2928       C  0.06175314  0.67960413  0.43580128     0.04100
C2929       C  0.04322688  0.69623652  0.43430123     0.18300
C2930       C  0.02918600  0.69570785  0.42440486    -0.19700
C2931       C  0.03740237  0.71188491  0.44281002    -0.21000
C2932       C  0.04808167  0.70988595  0.45292181    -0.19500
C2933       C  0.06395886  0.69135748  0.45480552     0.19700
C2934       C  0.07153100  0.67636948  0.44628611     0.01800
C2935       C  0.08699468  0.65740914  0.44874207    -0.14200
C2936       C  0.09135150  0.65066290  0.45925561    -0.12000
C2937       C  0.08048302  0.66253894  0.46770963     0.01300
C2938       C  0.07040968  0.68604145  0.46526615    -0.24100
H2939       H  0.05792094  0.65256986  0.41044291     0.09400
H2940       H  0.08293369  0.65356237  0.42719756     0.12900
H2941       H  0.01356997  0.70684304  0.42351847     0.11600
H2942       H  0.02370760  0.72499737  0.44168965     0.12800
H2943       H  0.04237224  0.72148848  0.45940094     0.11900
H2944       H  0.09483188  0.64636116  0.44273106     0.08900
H2945       H  0.10287268  0.63562355  0.46070784     0.12200
H2946       H  0.06441247  0.69774951  0.47163965     0.14100
C2947       C  0.07987784  0.46179911  0.48203528    -0.01400
C2948       C  0.09714499  0.48564915  0.49003453    -0.09400
C2949       C  0.09749755  0.51637823  0.49039605    -0.18300
C2950       C  0.07909149  0.52394269  0.48306964     0.04100
C2951       C  0.05870590  0.49838160  0.47577804     0.18300
C2952       C  0.05877825  0.46779211  0.47548019    -0.19700
C2953       C  0.03845129  0.50352607  0.46871183    -0.21000
C2954       C  0.03854366  0.53382516  0.46853686    -0.19500
C2955       C  0.05924240  0.56006413  0.47532031     0.19700
C2956       C  0.07978701  0.55561106  0.48271784     0.01800
C2957       C  0.10012034  0.58313738  0.48933883    -0.14200
C2958       C  0.10083092  0.61398170  0.48836408    -0.12000
C2959       C  0.08201877  0.61917703  0.48057315     0.01300
C2960       C  0.05966532  0.59087456  0.47460719    -0.24100
H2961       H  0.11097764  0.48081790  0.49600249     0.09400
H2962       H  0.11220880  0.53365180  0.49654828     0.12900
H2963       H  0.04268951  0.44868936  0.46989817     0.11600
H2964       H  0.02258485  0.48403395  0.46319244     0.12800
H2965       H  0.02272625  0.53698352  0.46289287     0.11900
H2966       H  0.11594362  0.58163448  0.49530314     0.08900
H2967       H  0.11626891  0.63385706  0.49380946     0.12200
H2968       H  0.04299337  0.59315250  0.46910386     0.14100
C2969       C  0.11540128  0.68424548  0.48321048    -0.01400
C2970       C  0.14551895  0.68645467  0.47998715    -0.09400
C2971       C  0.17622175  0.71625467  0.48059903    -0.18300
C2972       C  0.17871138  0.74667277  0.48389262     0.04100
C2973       C  0.14869782  0.74558829  0.48683905     0.18300
C2974       C  0.11767595  0.71459175  0.48671327    -0.19700
C2975       C  0.14978138  0.77587483  0.48931290    -0.21000
C2976       C  0.17952589  0.80692518  0.48852919    -0.19500
C2977       C  0.20953748  0.80872666  0.48563762     0.19700
C2978       C  0.20963317  0.77840719  0.48369844     0.01800
C2979       C  0.24060998  0.78121843  0.48137273    -0.14200
C2980       C  0.26974008  0.81260086  0.48030186    -0.12000
C2981       C  0.27005580  0.84329605  0.48157115     0.01300
C2982       C  0.23917162  0.84056113  0.48432887    -0.24100
H2983       H  0.14533775  0.66509903  0.47637484     0.09400
H2984       H  0.19740718  0.71506584  0.47774699     0.12900
H2985       H  0.09503186  0.71464544  0.48863266     0.11600
H2986       H  0.12720809  0.77569939  0.49151996     0.12800
H2987       H  0.17899033  0.82976303  0.49015163     0.11900
H2988       H  0.24312236  0.75942099  0.48015482     0.08900
H2989       H  0.29172554  0.81228313  0.47776017     0.12200
H2990       H  0.23780106  0.86331556  0.48498721     0.14100
C2991       C  0.85211598  0.50696619  0.51814431    -0.01400
C2992       C  0.84392785  0.48709314  0.50894206    -0.09400
C2993       C  0.84344905  0.45630445  0.50881384    -0.18300
C2994       C  0.85293805  0.44456580  0.51779039     0.04100
C2995       C  0.86341869  0.46545994  0.52686562     0.18300
C2996       C  0.86306601  0.49595792  0.52695476    -0.19700
C2997       C  0.87510148  0.45628598  0.53577959    -0.21000
C2998       C  0.87625680  0.42663701  0.53593699    -0.19500
C2999       C  0.86521985  0.40493137  0.52725794     0.19700
C3000       C  0.85337792  0.41346603  0.51804742     0.01800
C3001       C  0.84302421  0.39068723  0.50950340    -0.14200
C3002       C  0.84378829  0.36057840  0.51020099    -0.12000
C3003       C  0.85359527  0.35093801  0.51955207     0.01300
C3004       C  0.86615285  0.37477698  0.52779642    -0.24100
H3005       H  0.83780443  0.49560465  0.50171217     0.09400
H3006       H  0.83630654  0.44262134  0.50147994     0.12900
H3007       H  0.87316992  0.51179363  0.53381742     0.11600
H3008       H  0.88354314  0.47225075  0.54269634     0.12800
H3009       H  0.88551438  0.42043913  0.54297920     0.11900
H3010       H  0.83415514  0.39543781  0.50216689     0.08900
H3011       H  0.83611883  0.34427384  0.50337170     0.12200
H3012       H  0.87739398  0.37047147  0.53468133     0.14100
C3013       C  0.88961406  0.56346018  0.51148705    -0.01400
C3014       C  0.91885753  0.56982172  0.51693346    -0.09400
C3015       C  0.95038631  0.58751456  0.51235836    -0.18300
C3016       C  0.95459912  0.59860957  0.50178392     0.04100
C3017       C  0.92530851  0.59065241  0.49591097     0.18300
C3018       C  0.89333759  0.57405899  0.50082255    -0.19700
C3019       C  0.92819112  0.59841353  0.48508097    -0.21000
C3020       C  0.95901809  0.61268876  0.47997909    -0.19500
C3021       C  0.98823626  0.62129523  0.48564016     0.19700
C3022       C  0.98669274  0.61577259  0.49669846     0.01800
C3023       C  0.01729432  0.62716232  0.50210137    -0.14200
C3024       C  0.04788881  0.64184607  0.49664131    -0.12000
C3025       C  0.04952814  0.64546767  0.48555102     0.01300
C3026       C  0.01879215  0.63439369  0.48020713    -0.24100
H3027       H  0.91741318  0.56136401  0.52503600     0.09400
H3028       H  0.97099949  0.59106796  0.51720700     0.12900
H3029       H  0.87144197  0.56830161  0.49622944     0.11600
H3030       H  0.90629546  0.59240733  0.48044071     0.12800
H3031       H  0.96003284  0.61721511  0.47151734     0.11900
H3032       H  0.01832734  0.62500947  0.51058353     0.08900
H3033       H  0.07037232  0.64897792  0.50108795     0.12200
H3034       H  0.01778672  0.63405563  0.47166186     0.14100
C3035       C  0.54168400  0.88302470  0.46615608    -0.01400
C3036       C  0.57619378  0.90614685  0.46530780    -0.09400
C3037       C  0.59244154  0.91481805  0.45559194    -0.18300
C3038       C  0.57514420  0.90027750  0.44616696     0.04100
C3039       C  0.54186422  0.87311920  0.44705703     0.18300
C3040       C  0.52592730  0.86379903  0.45706470    -0.19700
C3041       C  0.52441996  0.85656760  0.43789485    -0.21000
C3042       C  0.53857852  0.86793013  0.42788185    -0.19500
C3043       C  0.57047176  0.89626096  0.42676700     0.19700
C3044       C  0.58950121  0.91232142  0.43592772     0.01800
C3045       C  0.62137877  0.94104655  0.43446213    -0.14200
C3046       C  0.63310729  0.95430545  0.42439313    -0.12000
C3047       C  0.61376746  0.93950207  0.41539197     0.01300
C3048       C  0.58284957  0.90972845  0.41659635    -0.24100
H3049       H  0.59109610  0.91853594  0.47219718     0.09400
H3050       H  0.61854033  0.93341321  0.45574321     0.12900
H3051       H  0.50041831  0.84329164  0.45763810     0.11600
H3052       H  0.49923907  0.83542545  0.43845197     0.12800
H3053       H  0.52398911  0.85522017  0.42095188     0.11900
H3054       H  0.63736082  0.95486675  0.44095753     0.08900
H3055       H  0.65696494  0.97730443  0.42371174     0.12200
H3056       H  0.56754431  0.89816702  0.40968365     0.14100
C3057       C  0.33293635  0.87523374  0.47632728    -0.01400
C3058       C  0.35301564  0.88500915  0.46712300    -0.09400
C3059       C  0.38282126  0.88436593  0.46667145    -0.18300
C3060       C  0.39510197  0.87517434  0.47555903     0.04100
C3061       C  0.37605716  0.86683722  0.48503344     0.18300
C3062       C  0.34569101  0.86706137  0.48534420    -0.19700
C3063       C  0.38772077  0.85875673  0.49420194    -0.21000
C3064       C  0.41781715  0.85889305  0.49417094    -0.19500
C3065       C  0.43713422  0.86678289  0.48494245     0.19700
C3066       C  0.42594523  0.87480952  0.47548571     0.01800
C3067       C  0.44647864  0.88271372  0.46644105    -0.14200
C3068       C  0.47670215  0.88282986  0.46675711    -0.12000
C3069       C  0.48793660  0.87422868  0.47603413     0.01300
C3070       C  0.46776544  0.86708603  0.48517339    -0.24100
H3071       H  0.34677085  0.89464577  0.46021609     0.09400
H3072       H  0.39620602  0.89212251  0.45927719     0.12900
H3073       H  0.33178106  0.86093134  0.49269468     0.11600
H3074       H  0.37354959  0.85249109  0.50149859     0.12800
H3075       H  0.42604866  0.85274735  0.50144788     0.11900
H3076       H  0.44014962  0.88958860  0.45898542     0.08900
H3077       H  0.49182357  0.89157191  0.45970703     0.12200
H3078       H  0.47620059  0.86182815  0.49256967     0.14100
C3079       C  0.66551171  0.13089754  0.51473858    -0.01400
C3080       C  0.66637055  0.16156999  0.51258065    -0.09400
C3081       C  0.69641905  0.19244472  0.51206951    -0.18300
C3082       C  0.72748162  0.19415021  0.51294508     0.04100
C3083       C  0.72719851  0.16317549  0.51347904     0.18300
C3084       C  0.69667724  0.13224162  0.51464293    -0.19700
C3085       C  0.75750695  0.16350705  0.51300245    -0.21000
C3086       C  0.78787293  0.19390527  0.51235138    -0.19500
C3087       C  0.78906535  0.22502427  0.51276999     0.19700
C3088       C  0.75876446  0.22541440  0.51323018     0.01800
C3089       C  0.76100874  0.25685580  0.51472552    -0.14200
C3090       C  0.79178301  0.28638187  0.51605504    -0.12000
C3091       C  0.82242906  0.28692348  0.51531346     0.01300
C3092       C  0.82026004  0.25550955  0.51339241    -0.24100
H3093       H  0.64395199  0.16254530  0.51139094     0.09400
H3094       H  0.69470232  0.21473604  0.51070498     0.12900
H3095       H  0.69720740  0.10910515  0.51573740     0.11600
H3096       H  0.75775729  0.14005903  0.51314597     0.12800
H3097       H  0.81069122  0.19303277  0.51202024     0.11900
H3098       H  0.73910243  0.25894436  0.51574834     0.08900
H3099       H  0.79094170  0.30851592  0.51836920     0.12200
H3100       H  0.84290808  0.25433946  0.51321584     0.14100
C3101       C  0.60006522  0.09995914  0.51612540    -0.01400
C3102       C  0.57264815  0.07718423  0.50992067    -0.09400
C3103       C  0.54308156  0.07783731  0.50948559    -0.18300
C3104       C  0.53808046  0.10032461  0.51563652     0.04100
C3105       C  0.56478457  0.12323694  0.52208942     0.18300
C3106       C  0.59487836  0.12235740  0.52248029    -0.19700
C3107       C  0.56092702  0.14649115  0.52818509    -0.21000
C3108       C  0.53118883  0.14728532  0.52795908    -0.19500
C3109       C  0.50402744  0.12423852  0.52185661     0.19700
C3110       C  0.50717091  0.10019121  0.51575775     0.01800
C3111       C  0.47866889  0.07574188  0.51045306    -0.14200
C3112       C  0.44859188  0.07525504  0.51100477    -0.12000
C3113       C  0.44504872  0.10020893  0.51635692     0.01300
C3114       C  0.47343839  0.12424766  0.52205516    -0.24100
H3115       H  0.57224839  0.05680950  0.50569173     0.09400
H3116       H  0.52430951  0.05975980  0.50428937     0.12900
H3117       H  0.61438593  0.13904216  0.52784183     0.11600
H3118       H  0.58109382  0.16428599  0.53314406     0.12800
H3119       H  0.52923135  0.16566424  0.53274798     0.11900
H3120       H  0.47808726  0.05518761  0.50623904     0.08900
H3121       H  0.42776974  0.05316295  0.50772373     0.12200
H3122       H  0.47134469  0.14240344  0.52692275     0.14100
C3123       C  0.63072923  0.06848044  0.51002634    -0.01400
C3124       C  0.62642292  0.06930248  0.49900317    -0.09400
C3125       C  0.61257113  0.03944913  0.49304858    -0.18300
C3126       C  0.60444212  0.00813899  0.49783400     0.04100
C3127       C  0.61625271  0.00910023  0.50822228     0.18300
C3128       C  0.63035395  0.03928482  0.51404462    -0.19700
C3129       C  0.61204847  0.97945366  0.51296656    -0.21000
C3130       C  0.59434438  0.94844538  0.50786173    -0.19500
C3131       C  0.57958952  0.94598808  0.49797268     0.19700
C3132       C  0.58467765  0.97600008  0.49283034     0.01800
C3133       C  0.56811135  0.97243024  0.48319979    -0.14200
C3134       C  0.54791059  0.94079001  0.47877686    -0.12000
C3135       C  0.54354580  0.91071135  0.48347727     0.01300
C3136       C  0.55940540  0.91379949  0.49328492    -0.24100
H3137       H  0.62948082  0.09201374  0.49528442     0.09400
H3138       H  0.60729195  0.04131573  0.48482968     0.12900
H3139       H  0.63871743  0.03886538  0.52201057     0.11600
H3140       H  0.62164968  0.98006716  0.52083849     0.12800
H3141       H  0.59113197  0.92605052  0.51186434     0.11900
H3142       H  0.56975608  0.99372934  0.47898783     0.08900
H3143       H  0.53635896  0.93995121  0.47125202     0.12200
H3144       H  0.55607952  0.89145754  0.49732433     0.14100
C3145       C  0.54165036  0.67166878  0.46648822    -0.01400
C3146       C  0.57666110  0.68708159  0.46592458    -0.09400
C3147       C  0.59370824  0.69775310  0.45636803    -0.18300
C3148       C  0.57661695  0.69388266  0.44680600     0.04100
C3149       C  0.54206448  0.68268428  0.44741283     0.18300
C3150       C  0.52534021  0.67343422  0.45728094    -0.19700
C3151       C  0.52423013  0.67928219  0.43810582    -0.21000
C3152       C  0.53942560  0.68431544  0.42821645    -0.19500
C3153       C  0.57295721  0.69331283  0.42738519     0.19700
C3154       C  0.59235556  0.69949175  0.43668567     0.01800
C3155       C  0.62624824  0.70912871  0.43545528    -0.14200
C3156       C  0.63952152  0.70982249  0.42550550    -0.12000
C3157       C  0.61972906  0.70123125  0.41642478     0.01300
C3158       C  0.58679245  0.69440243  0.41736129    -0.24100
H3159       H  0.59133611  0.69025097  0.47293571     0.09400
H3160       H  0.62020879  0.70807163  0.45674557     0.12900
H3161       H  0.49912924  0.66544463  0.45764952     0.11600
H3162       H  0.49799512  0.67122785  0.43845340     0.12800
H3163       H  0.52454388  0.68003839  0.42116481     0.11900
H3164       H  0.64292072  0.71495412  0.44204946     0.08900
H3165       H  0.66503701  0.71536984  0.42500713     0.12200
H3166       H  0.57124295  0.68777718  0.41037102     0.14100
C3167       C  0.33200435  0.46693498  0.47815121    -0.01400
C3168       C  0.35114932  0.47742208  0.46872861    -0.09400
C3169       C  0.38107192  0.50822648  0.46795131    -0.18300
C3170       C  0.39436617  0.52996820  0.47669314     0.04100
C3171       C  0.37610280  0.51925055  0.48633954     0.18300
C3172       C  0.34583391  0.48809333  0.48701641    -0.19700
C3173       C  0.38845610  0.53952121  0.49532940    -0.21000
C3174       C  0.41865951  0.56985422  0.49499311    -0.19500
C3175       C  0.43747222  0.58097825  0.48564778     0.19700
C3176       C  0.42552253  0.56140764  0.47632792     0.01800
C3177       C  0.44578558  0.57380845  0.46717166    -0.14200
C3178       C  0.47650080  0.60408588  0.46728402    -0.12000
C3179       C  0.48821823  0.62428892  0.47642451     0.01300
C3180       C  0.46842489  0.61136968  0.48565681    -0.24100
H3181       H  0.34409671  0.46134458  0.46189098     0.09400
H3182       H  0.39369304  0.51394240  0.46042086     0.12900
H3183       H  0.33277056  0.48012873  0.49452477     0.11600
H3184       H  0.37477122  0.53171654  0.50272894     0.12800
H3185       H  0.42749089  0.58465544  0.50214435     0.11900
H3186       H  0.43891436  0.56023424  0.45981851     0.08900
H3187       H  0.49149133  0.61043814  0.46021179     0.12200
H3188       H  0.47736702  0.62533996  0.49296144     0.14100
C3189       C  0.52098111  0.84427880  0.48159874    -0.01400
C3190       C  0.49054490  0.81325067  0.48174646    -0.09400
C3191       C  0.48910452  0.78223176  0.48330857    -0.18300
C3192       C  0.51818715  0.78008810  0.48451084     0.04100
C3193       C  0.54887652  0.81097994  0.48501967     0.18300
C3194       C  0.55002807  0.84235714  0.48361155    -0.19700
C3195       C  0.57844605  0.81021607  0.48638896    -0.21000
C3196       C  0.57833833  0.77967672  0.48666692    -0.19500
C3197       C  0.54870401  0.74877507  0.48546607     0.19700
C3198       C  0.51813266  0.74855946  0.48462676     0.01800
C3199       C  0.48910447  0.71692335  0.48324313    -0.14200
C3200       C  0.49056997  0.68744323  0.48179583    -0.12000
C3201       C  0.52088106  0.68717852  0.48212002     0.01300
C3202       C  0.54974672  0.71843845  0.48444699    -0.24100
H3203       H  0.46728974  0.81204225  0.47994610     0.09400
H3204       H  0.46471197  0.76009747  0.48307511     0.12900
H3205       H  0.57400391  0.86531806  0.48340528     0.11600
H3206       H  0.60205514  0.83351520  0.48693265     0.12800
H3207       H  0.60187324  0.78035683  0.48740941     0.11900
H3208       H  0.46484467  0.71436685  0.48258685     0.08900
H3209       H  0.46750615  0.66527609  0.47965000     0.12200
H3210       H  0.57361919  0.71973544  0.48465385     0.14100
C3211       C  0.67102995  0.54550195  0.51056084    -0.01400
C3212       C  0.67042332  0.51505651  0.50833289    -0.09400
C3213       C  0.69974397  0.51344574  0.50753354    -0.18300
C3214       C  0.73151077  0.54248920  0.50850098     0.04100
C3215       C  0.73262844  0.57389806  0.50906598     0.18300
C3216       C  0.70276839  0.57521020  0.50995196    -0.19700
C3217       C  0.76367693  0.60370266  0.50920583    -0.21000
C3218       C  0.79335439  0.60285774  0.50920939    -0.19500
C3219       C  0.79307137  0.57216430  0.50945913     0.19700
C3220       C  0.76208416  0.54153708  0.50910244     0.01800
C3221       C  0.76296103  0.51136226  0.51013243    -0.14200
C3222       C  0.79284310  0.51158850  0.51208812    -0.12000
C3223       C  0.82404229  0.54181695  0.51251752     0.01300
C3224       C  0.82342236  0.57200983  0.51072052    -0.24100
H3225       H  0.64733645  0.49162698  0.50750564     0.09400
H3226       H  0.69682432  0.48893700  0.50620922     0.12900
H3227       H  0.70440627  0.59935650  0.51106885     0.11600
H3228       H  0.76505327  0.62792861  0.50949824     0.12800
H3229       H  0.81673927  0.62647884  0.50949231     0.11900
H3230       H  0.74046584  0.48709361  0.51025250     0.08900
H3231       H  0.79054071  0.48755740  0.51397075     0.12200
H3232       H  0.84651684  0.59581905  0.51116675     0.14100
C3233       C  0.60620299  0.51098120  0.51338761    -0.01400
C3234       C  0.57879102  0.50626398  0.50718177    -0.09400
C3235       C  0.54870440  0.47584351  0.50699070    -0.18300
C3236       C  0.54325608  0.44824094  0.51336040     0.04100
C3237       C  0.56995895  0.45227821  0.51983772     0.18300
C3238       C  0.60074073  0.48310562  0.51980290    -0.19700
C3239       C  0.56541799  0.42568843  0.52649024    -0.21000
C3240       C  0.53497394  0.39543833  0.52685506    -0.19500
C3241       C  0.50804827  0.39083864  0.52060637     0.19700
C3242       C  0.51191667  0.41722545  0.51376972     0.01800
C3243       C  0.48386683  0.41189561  0.50791091    -0.14200
C3244       C  0.45320058  0.38227402  0.50896737    -0.12000
C3245       C  0.44877059  0.35520453  0.51552816     0.01300
C3246       C  0.47705880  0.36039381  0.52136012    -0.24100
H3247       H  0.57888232  0.52611858  0.50263508     0.09400
H3248       H  0.52976513  0.47522791  0.50192481     0.12900
H3249       H  0.62043891  0.48582038  0.52503011     0.11600
H3250       H  0.58549450  0.42838176  0.53152105     0.12800
H3251       H  0.53237490  0.37560278  0.53216326     0.11900
H3252       H  0.48431620  0.43072439  0.50267013     0.08900
H3253       H  0.43292587  0.38229188  0.50489043     0.12200
H3254       H  0.47452882  0.34086708  0.52680205     0.14100
C3255       C  0.63544423  0.57418688  0.50817099    -0.01400
C3256       C  0.63248887  0.57280537  0.49704238    -0.09400
C3257       C  0.61696602  0.58823883  0.49165968    -0.18300
C3258       C  0.60501798  0.60686836  0.49717319     0.04100
C3259       C  0.61387692  0.61372217  0.50796059     0.18300
C3260       C  0.62996639  0.59858621  0.51320405    -0.19700
C3261       C  0.60517317  0.63438213  0.51361032    -0.21000
C3262       C  0.58707489  0.64765944  0.50883181    -0.19500
C3263       C  0.57622271  0.63994126  0.49833583     0.19700
C3264       C  0.58462676  0.61885923  0.49245114     0.01800
C3265       C  0.57079770  0.60918783  0.48229514    -0.14200
C3266       C  0.55046317  0.62059043  0.47805531    -0.12000
C3267       C  0.54392458  0.64365543  0.48340398     0.01300
C3268       C  0.55669613  0.65271982  0.49374386    -0.24100
H3269       H  0.63843108  0.55636012  0.49265602     0.09400
H3270       H  0.61359766  0.58426081  0.48323499     0.12900
H3271       H  0.63618471  0.60474175  0.52142957     0.11600
H3272       H  0.61201618  0.63995459  0.52186362     0.12800
H3273       H  0.58078771  0.66339302  0.51348212     0.11900
H3274       H  0.57461461  0.59203627  0.47753274     0.08900
H3275       H  0.54060716  0.61216315  0.47019172     0.12200
H3276       H  0.55113152  0.66916748  0.49828296     0.14100
C3277       C  0.92043511  0.64567167  0.63759646    -0.01400
C3278       C  0.90536495  0.61569392  0.64353420    -0.09400
C3279       C  0.90125523  0.61608490  0.65448972    -0.18300
C3280       C  0.91271918  0.64678005  0.65992017     0.04100
C3281       C  0.92581002  0.67686403  0.65374512     0.18300
C3282       C  0.92925278  0.67600717  0.64270194    -0.19700
C3283       C  0.93720686  0.70792264  0.65868277    -0.21000
C3284       C  0.93812985  0.71013680  0.66965401    -0.19500
C3285       C  0.92783109  0.68137835  0.67595674     0.19700
C3286       C  0.91374066  0.64906648  0.67123601     0.01800
C3287       C  0.90346741  0.62087473  0.67805210    -0.14200
C3288       C  0.91027263  0.62510331  0.68891610    -0.12000
C3289       C  0.92700979  0.65738433  0.69331218     0.01300
C3290       C  0.93386874  0.68513801  0.68689448    -0.24100
H3291       H  0.89800240  0.59186594  0.63976132     0.09400
H3292       H  0.89026867  0.59210452  0.65853229     0.12900
H3293       H  0.94085739  0.69934638  0.63818109     0.11600
H3294       H  0.94677428  0.73088404  0.65403125     0.12800
H3295       H  0.94844529  0.73476659  0.67322574     0.11900
H3296       H  0.89169304  0.59543434  0.67515976     0.08900
H3297       H  0.90437836  0.60319784  0.69374809     0.12200
H3298       H  0.94639879  0.71016574  0.69027575     0.14100
C3299       C  0.90586902  0.62555949  0.58019620    -0.01400
C3300       C  0.91859494  0.64777594  0.57155245    -0.09400
C3301       C  0.90681611  0.63699810  0.56131555    -0.18300
C3302       C  0.88205243  0.60320317  0.55933782     0.04100
C3303       C  0.86769179  0.58129590  0.56820076     0.18300
C3304       C  0.87949352  0.59266720  0.57851010    -0.19700
C3305       C  0.84272436  0.54774419  0.56666474    -0.21000
C3306       C  0.83282323  0.53502047  0.55649137    -0.19500
C3307       C  0.84799987  0.55536706  0.54758095     0.19700
C3308       C  0.87227505  0.58993210  0.54889298     0.01800
C3309       C  0.88666998  0.60939012  0.53967866    -0.14200
C3310       C  0.88014673  0.59445113  0.52975123    -0.12000
C3311       C  0.85913452  0.55938535  0.52849234     0.01300
C3312       C  0.84035264  0.54097027  0.53739307    -0.24100
H3313       H  0.93875869  0.67338051  0.57264522     0.09400
H3314       H  0.91846120  0.65548029  0.55509355     0.12900
H3315       H  0.86947162  0.57524951  0.58514680     0.11600
H3316       H  0.83139624  0.53094445  0.57337898     0.12800
H3317       H  0.81413077  0.50869663  0.55559278     0.11900
H3318       H  0.90398610  0.63609329  0.53987541     0.08900
H3319       H  0.89270459  0.61064210  0.52302417     0.12200
H3320       H  0.82165192  0.51463765  0.53651743     0.14100
C3321       C  0.29540075  0.02240372  0.63771047    -0.01400
C3322       C  0.26643261  0.01050735  0.64378523    -0.09400
C3323       C  0.26832025  0.01638969  0.65468265    -0.18300
C3324       C  0.29946892  0.03343596  0.65988606     0.04100
C3325       C  0.32869140  0.04663760  0.65356327     0.18300
C3326       C  0.32636095  0.04194983  0.64257085    -0.19700
C3327       C  0.36011729  0.06221718  0.65830696    -0.21000
C3328       C  0.36315810  0.06285429  0.66925531    -0.19500
C3329       C  0.33486909  0.04877046  0.67571400     0.19700
C3330       C  0.30271503  0.03548751  0.67115172     0.01800
C3331       C  0.27515378  0.02313383  0.67808405    -0.14200
C3332       C  0.27898379  0.02025778  0.68893928    -0.12000
C3333       C  0.31031366  0.02990164  0.69321285     0.01300
C3334       C  0.33838518  0.04596042  0.68666231    -0.24100
H3335       H  0.24223329  0.99520088  0.64019187     0.09400
H3336       H  0.24501767  0.00546339  0.65889833     0.12900
H3337       H  0.34890913  0.05087723  0.63794081     0.11600
H3338       H  0.38246970  0.07240286  0.65351649     0.12800
H3339       H  0.38776257  0.07346957  0.67268306     0.11900
H3340       H  0.25021505  0.01439829  0.67531187     0.08900
H3341       H  0.25698609  0.00853733  0.69390694     0.12200
H3342       H  0.36279843  0.05403581  0.68994817     0.14100
C3343       C  0.20501972  0.89074032  0.60888107    -0.01400
C3344       C  0.17680094  0.89155358  0.60552174    -0.09400
C3345       C  0.14592590  0.86201705  0.60506692    -0.18300
C3346       C  0.14238963  0.83049781  0.60789736     0.04100
C3347       C  0.17116637  0.82995010  0.61140659     0.18300
C3348       C  0.20198388  0.85990497  0.61190905    -0.19700
C3349       C  0.16908631  0.79950899  0.61434101    -0.21000
C3350       C  0.13893025  0.76941901  0.61385404    -0.19500
C3351       C  0.11011801  0.76905544  0.61043558     0.19700
C3352       C  0.11141064  0.79956747  0.60738517     0.01800
C3353       C  0.08158817  0.79775285  0.60396942    -0.14200
C3354       C  0.05170140  0.76713045  0.60382085    -0.12000
C3355       C  0.05048908  0.73729070  0.60695829     0.01300
C3356       C  0.07987469  0.73833549  0.61013744    -0.24100
H3357       H  0.17856882  0.91517489  0.60323534     0.09400
H3358       H  0.12539721  0.86477240  0.60243200     0.12900
H3359       H  0.22377662  0.85912167  0.61455343     0.11600
H3360       H  0.19095340  0.79896102  0.61702319     0.12800
H3361       H  0.13812388  0.74626861  0.61619205     0.11900
H3362       H  0.08038567  0.81952820  0.60141877     0.08900
H3363       H  0.02933501  0.76685355  0.60125973     0.12200
H3364       H  0.07911473  0.71526652  0.61257043     0.14100
C3365       C  0.32600049  0.01550435  0.57940432    -0.01400
C3366       C  0.33497012  0.99757597  0.57255551    -0.09400
C3367       C  0.35014784  0.01119856  0.56285573    -0.18300
C3368       C  0.35716895  0.04363786  0.55962557     0.04100
C3369       C  0.34656738  0.06119118  0.56631643     0.18300
C3370       C  0.33122391  0.04709974  0.57614339    -0.19700
C3371       C  0.35172599  0.09279687  0.56318060    -0.21000
C3372       C  0.36704129  0.10721289  0.55353180    -0.19500
C3373       C  0.37803680  0.09062697  0.54682163     0.19700
C3374       C  0.37388686  0.05897067  0.54992012     0.01800
C3375       C  0.38701725  0.04413544  0.54322473    -0.14200
C3376       C  0.40037451  0.05819806  0.53339079    -0.12000
C3377       C  0.40124468  0.08765494  0.52964589     0.01300
C3378       C  0.39248637  0.10513299  0.53693295    -0.24100
H3379       H  0.33079855  0.97292567  0.57478683     0.09400
H3380       H  0.35598905  0.99557686  0.55806484     0.12900
H3381       H  0.32408166  0.06104586  0.58134308     0.11600
H3382       H  0.34364636  0.10636493  0.56819003     0.12800
H3383       H  0.37014799  0.13144458  0.55127949     0.11900
H3384       H  0.38686076  0.02124753  0.54525530     0.08900
H3385       H  0.40813364  0.04449219  0.52833908     0.12200
H3386       H  0.39590245  0.12958189  0.53498740     0.14100
C3387       C  0.66474882  0.00591895  0.63803676    -0.01400
C3388       C  0.66887209  0.03468896  0.64314761    -0.09400
C3389       C  0.67647391  0.03932254  0.65397804    -0.18300
C3390       C  0.67951114  0.01479699  0.65997754     0.04100
C3391       C  0.67782813  0.98713553  0.65445338     0.18300
C3392       C  0.67119883  0.98341414  0.64360463    -0.19700
C3393       C  0.68025499  0.96184068  0.65988089    -0.21000
C3394       C  0.68154455  0.96182158  0.67082981    -0.19500
C3395       C  0.68100080  0.98740244  0.67656733     0.19700
C3396       C  0.68165333  0.01518677  0.67128377     0.01800
C3397       C  0.68231735  0.04085976  0.67761216    -0.14200
C3398       C  0.67914187  0.03728713  0.68865778    -0.12000
C3399       C  0.67526087  0.00817118  0.69359794     0.01300
C3400       C  0.67775719  0.98418857  0.68757308    -0.24100
H3401       H  0.66422524  0.05253937  0.63893982     0.09400
H3402       H  0.67799247  0.06127985  0.65754691     0.12900
H3403       H  0.66856814  0.96135558  0.63963038     0.11600
H3404       H  0.67935303  0.94094323  0.65566351     0.12800
H3405       H  0.68163234  0.94093445  0.67484985     0.11900
H3406       H  0.68402268  0.06328234  0.67422387     0.08900
H3407       H  0.67764290  0.05627594  0.69325482     0.12200
H3408       H  0.67540996  0.96192212  0.69144843     0.14100
C3409       C  0.52306555  0.95873621  0.61911954    -0.01400
C3410       C  0.49380153  0.92862536  0.61681260    -0.09400
C3411       C  0.46273325  0.92585065  0.61818604    -0.18300
C3412       C  0.46010709  0.95344201  0.62184111     0.04100
C3413       C  0.48984541  0.98298322  0.62493827     0.18300
C3414       C  0.52083640  0.98525248  0.62362039    -0.19700
C3415       C  0.48872003  0.01087801  0.62875069    -0.21000
C3416       C  0.45907601  0.01123278  0.62870580    -0.19500
C3417       C  0.42989117  0.98362091  0.62490719     0.19700
C3418       C  0.42953149  0.95370259  0.62188031     0.01800
C3419       C  0.39899177  0.92621773  0.61841301    -0.14200
C3420       C  0.37097312  0.92954912  0.61704718    -0.12000
C3421       C  0.37249797  0.96012656  0.61918146     0.01300
C3422       C  0.40152087  0.98649441  0.62356510    -0.24100
H3423       H  0.49494204  0.90756894  0.61349292     0.09400
H3424       H  0.44139353  0.90229560  0.61592001     0.12900
H3425       H  0.54340781  0.00840572  0.62561727     0.11600
H3426       H  0.51120931  0.03319831  0.63131693     0.12800
H3427       H  0.45928755  0.03382219  0.63123445     0.11900
H3428       H  0.39627214  0.90226675  0.61633589     0.08900
H3429       H  0.34848237  0.90857660  0.61386878     0.12200
H3430       H  0.40257065  0.00998165  0.62547152     0.14100
C3431       C  0.62774291  0.01431427  0.57959997    -0.01400
C3432       C  0.60353875  0.99534976  0.57203766    -0.09400
C3433       C  0.60364554  0.00884362  0.56213438    -0.18300
C3434       C  0.62806616  0.04215216  0.55941751     0.04100
C3435       C  0.65400631  0.06066542  0.56677996     0.18300
C3436       C  0.65350325  0.04676832  0.57684349    -0.19700
C3437       C  0.68001111  0.09288535  0.56402315    -0.21000
C3438       C  0.68094472  0.10676352  0.55405737    -0.19500
C3439       C  0.65524571  0.08932633  0.54674146     0.19700
C3440       C  0.62786242  0.05735937  0.54954971     0.01800
C3441       C  0.60092020  0.04217583  0.54247763    -0.14200
C3442       C  0.60241200  0.05645303  0.53262428    -0.12000
C3443       C  0.63112131  0.08607138  0.52914226     0.01300
C3444       C  0.65678821  0.10339166  0.53661396    -0.24100
H3445       H  0.58392502  0.96989106  0.57383006     0.09400
H3446       H  0.58444644  0.99238806  0.55672646     0.12900
H3447       H  0.67274209  0.06139055  0.58256932     0.11600
H3448       H  0.70002398  0.10722629  0.56954457     0.12800
H3449       H  0.70179481  0.13139213  0.55208934     0.11900
H3450       H  0.57814382  0.01924206  0.54434673     0.08900
H3451       H  0.58142536  0.04297688  0.52736649     0.12200
H3452       H  0.67822722  0.12749972  0.53464393     0.14100
C3453       C  0.95073328  0.28984379  0.63703635    -0.01400
C3454       C  0.96822728  0.27689973  0.64240741    -0.09400
C3455       C  0.96755971  0.27481830  0.65343121    -0.18300
C3456       C  0.94990425  0.28652484  0.65947661     0.04100
C3457       C  0.92999563  0.29705388  0.65395478     0.18300
C3458       C  0.93012174  0.29804923  0.64281424    -0.19700
C3459       C  0.91190571  0.30869209  0.65957690    -0.21000
C3460       C  0.91497388  0.31233531  0.67052437    -0.19500
C3461       C  0.93608294  0.30427303  0.67612168     0.19700
C3462       C  0.95296828  0.29016934  0.67071707     0.01800
C3463       C  0.97376850  0.28218289  0.67671805    -0.14200
C3464       C  0.97954188  0.29021168  0.68741018    -0.12000
C3465       C  0.96448620  0.30593753  0.69257318     0.01300
C3466       C  0.94175236  0.31176803  0.68699172    -0.24100
H3467       H  0.98390273  0.26990502  0.63808933     0.09400
H3468       H  0.98242387  0.26542706  0.65696041     0.12900
H3469       H  0.91635287  0.30794011  0.63869154     0.11600
H3470       H  0.89635119  0.31637127  0.65543377     0.12800
H3471       H  0.90166553  0.32267415  0.67458851     0.11900
H3472       H  0.98690016  0.27076933  0.67333023     0.08900
H3473       H  0.99688613  0.28506093  0.69158364     0.12200
H3474       H  0.92995132  0.32390516  0.69094146     0.14100
C3475       C  0.99874779  0.42663906  0.60696390    -0.01400
C3476       C  0.00522469  0.44456034  0.61640706    -0.09400
C3477       C  0.00553016  0.47507936  0.61667702    -0.18300
C3478       C  0.99870098  0.48832954  0.60747608     0.04100
C3479       C  0.99280364  0.47025302  0.59787001     0.18300
C3480       C  0.99338285  0.44004999  0.59767443    -0.19700
C3481       C  0.98515649  0.48172991  0.58858350    -0.21000
C3482       C  0.98211203  0.51026306  0.58868619    -0.19500
C3483       C  0.98710789  0.52826111  0.59804404     0.19700
C3484       C  0.99628511  0.51809998  0.60752533     0.01800
C3485       C  0.00187016  0.53778060  0.61668082    -0.14200
C3486       C  0.99695699  0.56532777  0.61653298    -0.12000
C3487       C  0.98646695  0.57419706  0.60729228     0.01300
C3488       C  0.98223679  0.55599021  0.59802190    -0.24100
H3489       H  0.00940175  0.43459410  0.62368145     0.09400
H3490       H  0.01019198  0.48710813  0.62427247     0.12900
H3491       H  0.98808764  0.42614035  0.59034476     0.11600
H3492       H  0.98069056  0.46806692  0.58124012     0.12800
H3493       H  0.97537436  0.51805846  0.58142051     0.11900
H3494       H  0.00969861  0.53237476  0.62410781     0.08900
H3495       H  0.00069830  0.57930467  0.62376535     0.12200
H3496       H  0.97442277  0.56296229  0.59080590     0.14100
C3497       C  0.91261117  0.29230450  0.58194196    -0.01400
C3498       C  0.89015686  0.30406249  0.58101176    -0.09400
C3499       C  0.87464253  0.30241479  0.57138510    -0.18300
C3500       C  0.88137318  0.28910372  0.56230319     0.04100
C3501       C  0.90290479  0.27565783  0.56342924     0.18300
C3502       C  0.91782313  0.27687421  0.57322922    -0.19700
C3503       C  0.91112125  0.26306209  0.55461103    -0.21000
C3504       C  0.90071573  0.26614910  0.54455823    -0.19500
C3505       C  0.88118431  0.28112745  0.54314791     0.19700
C3506       C  0.86950417  0.29087650  0.55201688     0.01800
C3507       C  0.84720177  0.30277402  0.55011659    -0.14200
C3508       C  0.84042504  0.30884823  0.53979098    -0.12000
C3509       C  0.85729292  0.30539168  0.53110529     0.01300
C3510       C  0.87464458  0.28793560  0.53288250    -0.24100
H3511       H  0.88587085  0.31630365  0.58761873     0.09400
H3512       H  0.85898699  0.31345502  0.57115147     0.12900
H3513       H  0.93527673  0.26787232  0.57387170     0.11600
H3514       H  0.92712357  0.25236960  0.55541777     0.12800
H3515       H  0.90897515  0.25783754  0.53780585     0.11900
H3516       H  0.83488892  0.30785829  0.55645044     0.08900
H3517       H  0.82343236  0.31820275  0.53866113     0.12200
H3518       H  0.88492653  0.28134285  0.52625279     0.14100
C3519       C  0.29553990  0.30339511  0.63953801    -0.01400
C3520       C  0.26902749  0.30108511  0.64540510    -0.09400
C3521       C  0.26704799  0.29553602  0.65630236    -0.18300
C3522       C  0.29230486  0.29314024  0.66178329     0.04100
C3523       C  0.31904809  0.29507016  0.65577654     0.18300
C3524       C  0.31993269  0.29918795  0.64469004    -0.19700
C3525       C  0.34572318  0.29507675  0.66094934    -0.21000
C3526       C  0.34747634  0.29552780  0.67197021    -0.19500
C3527       C  0.32201132  0.29475130  0.67807988     0.19700
C3528       C  0.29318291  0.29151122  0.67306136     0.01800
C3529       C  0.26704713  0.28824538  0.67956589    -0.14200
C3530       C  0.27107490  0.29233523  0.69048515    -0.12000
C3531       C  0.30110864  0.29965376  0.69528567     0.01300
C3532       C  0.32585181  0.29901687  0.68912699    -0.24100
H3533       H  0.25022052  0.30476602  0.64157377     0.09400
H3534       H  0.24644224  0.29524374  0.66027517     0.12900
H3535       H  0.34099291  0.30190042  0.64019802     0.11600
H3536       H  0.36617234  0.29644290  0.65644688     0.12800
H3537       H  0.36926338  0.29732073  0.67573038     0.11900
H3538       H  0.24349030  0.28337891  0.67642729     0.08900
H3539       H  0.25121780  0.29180313  0.69510007     0.12200
H3540       H  0.34891479  0.30392295  0.69281802     0.14100
C3541       C  0.22662945  0.34351927  0.60291407    -0.01400
C3542       C  0.22577394  0.37347591  0.60217328    -0.09400
C3543       C  0.19563401  0.37287206  0.60107116    -0.18300
C3544       C  0.16507894  0.34202775  0.60080402     0.04100
C3545       C  0.16616998  0.31166579  0.60134271     0.18300
C3546       C  0.19677371  0.31267784  0.60228022    -0.19700
C3547       C  0.13665720  0.28046076  0.60124319    -0.21000
C3548       C  0.10594224  0.27869047  0.60093001    -0.19500
C3549       C  0.10395347  0.30807910  0.60063058     0.19700
C3550       C  0.13349487  0.34019480  0.60035684     0.01800
C3551       C  0.13006067  0.36905887  0.59991509    -0.14200
C3552       C  0.09875935  0.36617174  0.60027992    -0.12000
C3553       C  0.06981144  0.33455906  0.60097566     0.01300
C3554       C  0.07254687  0.30555317  0.60088795    -0.24100
H3555       H  0.24854794  0.39762802  0.60260737     0.09400
H3556       H  0.19711311  0.39700623  0.60068187     0.12900
H3557       H  0.19722989  0.28936248  0.60287634     0.11600
H3558       H  0.13730814  0.25723031  0.60162232     0.12800
H3559       H  0.08355276  0.25413156  0.60108072     0.11900
H3560       H  0.15105602  0.39428270  0.59946045     0.08900
H3561       H  0.09727741  0.38895398  0.60022043     0.12200
H3562       H  0.05024102  0.28096205  0.60138486     0.14100
C3563       C  0.34514930  0.33304838  0.58046468    -0.01400
C3564       C  0.34395883  0.30314880  0.57753003    -0.09400
C3565       C  0.35713221  0.30090115  0.56780641    -0.18300
C3566       C  0.37195875  0.32869571  0.56070974     0.04100
C3567       C  0.37201144  0.35853249  0.56361956     0.18300
C3568       C  0.35899143  0.36049306  0.57340882    -0.19700
C3569       C  0.38493919  0.38629256  0.55672952    -0.21000
C3570       C  0.39730143  0.38487207  0.54687770    -0.19500
C3571       C  0.39774093  0.35594426  0.54378254     0.19700
C3572       C  0.38600350  0.32781723  0.55073506     0.01800
C3573       C  0.38915270  0.30027916  0.54740485    -0.14200
C3574       C  0.40029623  0.29930809  0.53719639    -0.12000
C3575       C  0.40767441  0.32526496  0.52978114     0.01300
C3576       C  0.40888467  0.35467210  0.53359961    -0.24100
H3577       H  0.33306744  0.28150538  0.58280569     0.09400
H3578       H  0.35506076  0.27702959  0.56600140     0.12900
H3579       H  0.35975144  0.38367766  0.57554899     0.11600
H3580       H  0.38498579  0.40908499  0.55890426     0.12800
H3581       H  0.40641094  0.40649771  0.54161570     0.11900
H3582       H  0.38317535  0.27909900  0.55253632     0.08900
H3583       H  0.40242254  0.27768001  0.53523601     0.12200
H3584       H  0.41615959  0.37587820  0.52826738     0.14100
C3585       C  0.70255713  0.67399730  0.63458432    -0.01400
C3586       C  0.71546560  0.70465498  0.63989382    -0.09400
C3587       C  0.72303252  0.70684928  0.65065531    -0.18300
C3588       C  0.71695890  0.67797012  0.65655298     0.04100
C3589       C  0.70687420  0.64767047  0.65092165     0.18300
C3590       C  0.70027654  0.64608576  0.63998010    -0.19700
C3591       C  0.70104371  0.61852847  0.65638563    -0.21000
C3592       C  0.70225322  0.61803802  0.66740947    -0.19500
C3593       C  0.70926087  0.64665871  0.67324152     0.19700
C3594       C  0.71805132  0.67742135  0.66787015     0.01800
C3595       C  0.72505475  0.70566384  0.67407512    -0.14200
C3596       C  0.72017617  0.70261477  0.68499242    -0.12000
C3597       C  0.70905927  0.67171703  0.69018558     0.01300
C3598       C  0.70533394  0.64418800  0.68436094    -0.24100
H3599       H  0.71804227  0.72671486  0.63583661     0.09400
H3600       H  0.73196194  0.73113231  0.65420949     0.12900
H3601       H  0.69047677  0.62227761  0.63590077     0.11600
H3602       H  0.69391968  0.59547756  0.65213736     0.12800
H3603       H  0.69607892  0.59464199  0.67140971     0.11900
H3604       H  0.73277024  0.73012117  0.67070644     0.08900
H3605       H  0.72380756  0.72439921  0.68936952     0.12200
H3606       H  0.69678015  0.62020479  0.68833887     0.14100
C3607       C  0.40379895  0.42731265  0.61937803    -0.01400
C3608       C  0.43186245  0.42366751  0.61974591    -0.09400
C3609       C  0.46338767  0.45155254  0.62117227    -0.18300
C3610       C  0.46776454  0.48415552  0.62216909     0.04100
C3611       C  0.43887406  0.48716754  0.62281771     0.18300
C3612       C  0.40722282  0.45880282  0.62140163    -0.19700
C3613       C  0.44186834  0.51871075  0.62431928    -0.21000
C3614       C  0.47301830  0.54773450  0.62433339    -0.19500
C3615       C  0.50176520  0.54582946  0.62270310     0.19700
C3616       C  0.49964911  0.51394253  0.62193324     0.01800
C3617       C  0.52933693  0.51333784  0.62021002    -0.14200
C3618       C  0.55937572  0.54302647  0.61855801    -0.12000
C3619       C  0.56098314  0.57423287  0.61871884     0.01300
C3620       C  0.53238825  0.57561627  0.62121259    -0.24100
H3621       H  0.42964698  0.39932669  0.61848593     0.09400
H3622       H  0.48380976  0.44680711  0.62115194     0.12900
H3623       H  0.38538997  0.46152546  0.62141016     0.11600
H3624       H  0.41993950  0.52107664  0.62507683     0.12800
H3625       H  0.47450639  0.57192635  0.62511031     0.11900
H3626       H  0.53005116  0.49035384  0.61961650     0.08900
H3627       H  0.58126338  0.54139473  0.61674479     0.12200
H3628       H  0.53356439  0.59977973  0.62140743     0.14100
C3629       C  0.64034962  0.74355867  0.60288267    -0.01400
C3630       C  0.66866532  0.77471801  0.60067185    -0.09400
C3631       C  0.66709595  0.80433572  0.60071922    -0.18300
C3632       C  0.63693478  0.80357210  0.60299754     0.04100
C3633       C  0.60803842  0.77159781  0.60477218     0.18300
C3634       C  0.61001483  0.74216845  0.60469528    -0.19700
C3635       C  0.57736900  0.76911656  0.60683931    -0.21000
C3636       C  0.57475083  0.79782390  0.60736083    -0.19500
C3637       C  0.60277317  0.82972468  0.60588588     0.19700
C3638       C  0.63433003  0.83321305  0.60368421     0.01800
C3639       C  0.66184666  0.86622200  0.60244236    -0.14200
C3640       C  0.65802076  0.89441744  0.60328714    -0.12000
C3641       C  0.62678588  0.89063400  0.60537704     0.01300
C3642       C  0.59933412  0.85820966  0.60668451    -0.24100
H3643       H  0.69234643  0.77633708  0.59918949     0.09400
H3644       H  0.68995078  0.82742153  0.59906553     0.12900
H3645       H  0.58787829  0.71807017  0.60630131     0.11600
H3646       H  0.55525848  0.74477965  0.60814665     0.12800
H3647       H  0.55065745  0.79506184  0.60903223     0.11900
H3648       H  0.68665667  0.87109573  0.60090413     0.08900
H3649       H  0.67965900  0.91929716  0.60236181     0.12200
H3650       H  0.57509590  0.85506472  0.60839857     0.14100
C3651       C  0.65064947  0.62400894  0.57762410    -0.01400
C3652       C  0.68008826  0.62897071  0.57297902    -0.09400
C3653       C  0.67940380  0.61437847  0.56320656    -0.18300
C3654       C  0.64903522  0.59427129  0.55778997     0.04100
C3655       C  0.61939345  0.58982842  0.56251518     0.18300
C3656       C  0.62044483  0.60434101  0.57232740    -0.19700
C3657       C  0.58881675  0.57129765  0.55735993    -0.21000
C3658       C  0.58718496  0.55824580  0.54736136    -0.19500
C3659       C  0.61593024  0.56247027  0.54242664     0.19700
C3660       C  0.64698295  0.57926304  0.54772426     0.01800
C3661       C  0.67445511  0.58013140  0.54270966    -0.14200
C3662       C  0.67184106  0.56748217  0.53249011    -0.12000
C3663       C  0.64207074  0.55473226  0.52661085     0.01300
C3664       C  0.61381042  0.55076069  0.53207687    -0.24100
H3665       H  0.70371989  0.64417978  0.57690808     0.09400
H3666       H  0.70303413  0.61972988  0.55999113     0.12900
H3667       H  0.59746763  0.60029935  0.57585046     0.11600
H3668       H  0.56610133  0.56765756  0.56096175     0.12800
H3669       H  0.56328712  0.54495376  0.54342769     0.11900
H3670       H  0.69830264  0.59027896  0.54654057     0.08900
H3671       H  0.69385824  0.56865776  0.52934547     0.12200
H3672       H  0.59016577  0.54013475  0.52799904     0.14100
loop_ 
_geom_bond_atom_site_label_1 
_geom_bond_atom_site_label_2 
_geom_bond_distance 
_geom_bond_site_symmetry_2 
_ccdc_geom_bond_type 
In1           O3   2.222       .  S
In1           O4   2.277       .  S
In1          O12   2.253       .  S
In1           O6   2.219       .  S
In1           O8   2.250       .  S
In1           O9   2.247       .  S
In1          O10   2.225       .  S
In1          O13   2.272       .  S
C2            O8   1.261       .  A
C2           O10   1.259       .  A
C2         C3619   1.472       .  S
O3           C11   1.257       .  A
O4           C11   1.265       .  A
C5           O12   1.267       .  A
C5            O6   1.263       .  A
C5         C3629   1.477       .  S
C7            O9   1.257       .  A
C7           O13   1.259       .  A
C7         C3585   1.479       .  S
C11        C3651   1.480       .  S
In14         O16   2.268       .  S
In14         O17   2.216       .  S
In14         O25   2.242       .  S
In14         O19   2.228       .  S
In14         O21   2.242       .  S
In14         O22   2.269       .  S
In14         O23   2.221       .  S
In14         O26   2.218       .  S
C15          O21   1.263       .  A
C15          O23   1.260       .  A
C15        C3607   1.470       .  S
O16          C24   1.265       .  A
O17          C24   1.258       .  A
C18          O25   1.266       .  A
C18          O19   1.264       .  A
C18        C3541   1.478       .  S
C20          O22   1.267       .  A
C20          O26   1.259       .  A
C20        C3563   1.481       .  S
C24        C3519   1.473       .  S
In27         O29   2.238       .  S
In27         O30   2.266       .  S
In27         O38   2.254   1_655  S
In27         O32   2.237   1_655  S
In27         O34   2.236       .  S
In27         O35   2.266       .  S
In27         O36   2.247       .  S
In27         O39   2.248       .  S
C28          O34   1.261       .  A
C28          O36   1.262       .  A
C28        C3475   1.474       .  S
O29          C37   1.256       .  A
O30          C37   1.260       .  A
C31          O38   1.265       .  A
C31          O32   1.262       .  A
C31        C3553   1.479       .  S
C33          O35   1.257       .  A
C33          O39   1.256       .  A
C33        C3453   1.477       .  S
C37        C3497   1.478       .  S
In40         O42   2.280   1_565  S
In40         O43   2.209       .  S
In40         O51   2.250       .  S
In40         O45   2.222       .  S
In40         O47   2.249       .  S
In40         O48   2.283   1_565  S
In40         O49   2.249       .  S
In40         O52   2.224       .  S
C41          O47   1.259       .  A
C41          O49   1.260       .  A
C41        C3409   1.476       .  S
O42          C50   1.263   1_545  A
O43          C50   1.256       .  A
C44          O51   1.266       .  A
C44          O45   1.263       .  A
C44        C3641   1.476       .  S
C46          O48   1.263   1_565  A
C46          O52   1.257       .  A
C46        C3431   1.481   1_565  S
C50        C3387   1.474   1_565  S
In53         O55   2.229       .  S
In53         O56   2.287   1_565  S
In53         O64   2.242       .  S
In53         O58   2.220       .  S
In53         O60   2.252       .  S
In53         O61   2.245   1_565  S
In53         O62   2.235       .  S
In53         O65   2.260       .  S
C54          O60   1.260       .  A
C54          O62   1.259       .  A
C54        C3421   1.474       .  S
O55          C63   1.256   1_565  A
O56          C63   1.262       .  A
C57          O64   1.267       .  A
C57          O58   1.262       .  A
C57        C3343   1.473       .  S
C59          O61   1.259       .  A
C59          O65   1.258   1_545  A
C59        C3321   1.476       .  S
C63        C3365   1.483       .  S
In66         O68   2.272       .  S
In66         O69   2.255       .  S
In66         O77   2.247       .  S
In66         O71   2.249   1_655  S
In66         O73   2.239       .  S
In66         O74   2.250       .  S
In66         O75   2.241       .  S
In66         O78   2.270       .  S
C67          O73   1.260       .  A
C67          O75   1.261       .  A
C67        C3487   1.473       .  S
O68          C76   1.259       .  A
O69          C76   1.257       .  A
C70          O77   1.262   1_455  A
C70          O71   1.259       .  A
C70        C3355   1.476       .  S
C72          O74   1.259       .  A
C72          O78   1.262       .  A
C72        C3299   1.484       .  S
C76        C3277   1.484       .  S
C79        C3211   1.586       .  S
C79        C3233   1.586       .  S
C79        C3255   1.583       .  S
C79        C3663   1.566       .  S
C80        C3145   1.563       .  S
C80        C3179   1.573       .  S
C80        C3201   1.579       .  S
C80        C3267   1.570       .  S
C81        C3079   1.577       .  S
C81        C3101   1.585       .  S
C81        C3123   1.581       .  S
C81        C3443   1.557       .  S
C82        C3035   1.566       .  S
C82        C3069   1.579       .  S
C82        C3135   1.570       .  S
C82        C3189   1.579       .  S
C83        C2991   1.569       .  S
C83        C3013   1.567       .  S
C83        C3223   1.578       .  S
C83        C3311   1.561       .  S
C84        C2937   1.552       .  S
C84        C2959   1.566       .  S
C84        C2969   1.569       .  S
C84        C3025   1.569       .  S
C85        C2893   1.578       .  S
C85        C2903   1.582       .  S
C85        C3113   1.583       .  S
C85        C3377   1.563       .  S
C86        C2871   1.558       .  S
C86        C2915   1.568       .  S
C86        C2981   1.574       .  S
C86        C3057   1.577       .  S
C87        C2849   1.578       .  S
C87        C2881   1.578       .  S
C87        C3245   1.580       .  S
C87        C3575   1.559       .  S
C88        C2793   1.555       .  S
C88        C2815   1.570       .  S
C88        C2837   1.566       .  S
C88        C3167   1.576       .  S
C89        C2761   1.554       .  S
C89        C2771   1.567       .  S
C89        C2827   1.569       .  S
C89        C2947   1.566       .  S
C90        C2783   1.564       .  S
C90        C3003   1.567       .  S
C90        C3091   1.572       .  S
C90        C3509   1.554       .  S
In91         O93   2.258   1_655  S
In91         O94   2.255       .  S
In91        O102   2.256       .  S
In91         O96   2.242       .  S
In91         O98   2.228       .  S
In91         O99   2.259   1_655  S
In91        O100   2.256       .  S
In91        O103   2.257       .  S
C92          O98   1.261       .  A
C92         O100   1.263       .  A
C92        C2705   1.474       .  S
O93         C101   1.258   1_455  A
O94         C101   1.259       .  A
C95         O102   1.263       .  A
C95          O96   1.261       .  A
C95        C2727   1.479       .  S
C97          O99   1.256       .  A
C97         O103   1.258   1_455  A
C97        C2925   1.478       .  S
C101       C2683   1.480   1_655  S
In104       O106   2.273       .  S
In104       O107   2.253   1_655  S
In104       O115   2.279       .  S
In104       O109   2.242       .  S
In104       O111   2.247       .  S
In104       O112   2.268       .  S
In104       O113   2.241       .  S
In104       O116   2.242   1_655  S
C105        O111   1.263       .  A
C105        O113   1.260       .  A
C105       C2717   1.475       .  S
O106        C114   1.259   1_655  A
O107        C114   1.256       .  A
C108        O115   1.265       .  A
C108        O109   1.260       .  A
C108       C2673   1.488       .  S
C110        O112   1.261   1_455  A
C110        O116   1.256       .  A
C110       C2639   1.480       .  S
C114       C2749   1.481       .  S
In117       O119   2.248       .  S
In117       O120   2.279       .  S
In117       O128   2.280   1_565  S
In117       O122   2.256   1_565  S
In117       O124   2.251   1_565  S
In117       O125   2.270       .  S
In117       O126   2.247   1_565  S
In117       O129   2.244       .  S
C118        O124   1.263       .  A
C118        O126   1.259       .  A
C118       C2617   1.476       .  S
O119        C127   1.256       .  A
O120        C127   1.260       .  A
C121        O128   1.263       .  A
C121        O122   1.259       .  A
C121       C2661   1.490       .  S
C123        O125   1.261       .  A
C123        O129   1.261       .  A
C123       C3047   1.484       .  S
C127       C2595   1.482       .  S
In130       O132   2.256       .  S
In130       O133   2.264       .  S
In130       O141   2.270       .  S
In130       O135   2.256       .  S
In130       O137   2.229       .  S
In130       O138   2.233       .  S
In130       O139   2.240       .  S
In130       O142   2.283       .  S
C131        O137   1.262       .  A
C131        O139   1.264       .  A
C131       C2573   1.473       .  S
O132        C140   1.260       .  A
O133        C140   1.257       .  A
C134        O141   1.261       .  A
C134        O135   1.257       .  A
C134       C2739   1.483       .  S
C136        O138   1.256       .  A
C136        O142   1.262       .  A
C136       C2551   1.480       .  S
C140       C3157   1.482       .  S
In143       O145   2.253       .  S
In143       O146   2.255       .  S
In143       O154   2.242       .  S
In143       O148   2.250       .  S
In143       O150   2.243       .  S
In143       O151   2.270       .  S
In143       O152   2.244       .  S
In143       O155   2.228       .  S
C144        O150   1.261       .  A
C144        O152   1.262       .  A
C144       C2585   1.475       .  S
O145        C153   1.258       .  A
O146        C153   1.258       .  A
C147        O154   1.261       .  A
C147        O148   1.262       .  A
C147       C2541   1.477       .  S
C149        O151   1.260       .  A
C149        O155   1.257       .  A
C149       C2805   1.475       .  S
C153       C2507   1.478       .  S
In156       O158   2.245   1_545  S
In156       O159   2.254   1_545  S
In156       O167   2.257       .  S
In156       O161   2.239       .  S
In156       O163   2.242       .  S
In156       O164   2.253   1_545  S
In156       O165   2.248       .  S
In156       O168   2.254   1_545  S
C157        O163   1.262       .  A
C157        O165   1.260       .  A
C157       C2629   1.475       .  S
O158        C166   1.260       .  A
O159        C166   1.260       .  A
C160        O167   1.262       .  A
C160        O161   1.260       .  A
C160       C2529   1.478       .  S
C162        O164   1.259       .  A
C162        O168   1.258       .  A
C162       C2485   1.479       .  S
C166       C2859   1.477       .  S
In169       O171   2.286       .  S
In169       O172   2.246   1_655  S
In169       O180   2.242       .  S
In169       O174   2.243       .  S
In169       O176   2.260   1_655  S
In169       O177   2.287   1_655  S
In169       O178   2.209   1_655  S
In169       O181   2.217   1_655  S
C170        O176   1.267       .  A
C170        O178   1.261       .  A
C170       C2419   1.475       .  S
O171        C179   1.259       .  A
O172        C179   1.253   1_455  A
C173        O180   1.265       .  A
C173        O174   1.266       .  A
C173       C2453   1.482       .  S
C175        O177   1.266       .  A
C175        O181   1.256       .  A
C175       C2463   1.483       .  S
C179       C2397   1.482       .  S
In182       O184   2.255       .  S
In182       O185   2.277   1_655  S
In182       O193   2.247       .  S
In182       O187   2.258       .  S
In182       O189   2.236   1_655  S
In182       O190   2.252       .  S
In182       O191   2.243   1_655  S
In182       O194   2.259       .  S
C183        O189   1.259       .  A
C183        O191   1.260       .  A
C183       C2343   1.471       .  S
O184        C192   1.258       .  A
O185        C192   1.258   1_455  A
C186        O193   1.264       .  A
C186        O187   1.262       .  A
C186       C2365   1.483       .  S
C188        O190   1.258       .  A
C188        O194   1.260       .  A
C188       C2309   1.479       .  S
C192       C2375   1.485   1_655  S
In195       O197   2.243       .  S
In195       O198   2.255       .  S
In195       O206   2.241       .  S
In195       O200   2.227       .  S
In195       O202   2.229       .  S
In195       O203   2.291       .  S
In195       O204   2.247       .  S
In195       O207   2.208       .  S
C196        O202   1.258       .  A
C196        O204   1.260       .  A
C196       C2331   1.466       .  S
O197        C205   1.260       .  A
O198        C205   1.261       .  A
C199        O206   1.265       .  A
C199        O200   1.262       .  A
C199       C2265   1.474       .  S
C201        O203   1.262       .  A
C201        O207   1.253       .  A
C201       C2287   1.478       .  S
C205       C2243   1.476       .  S
In208       O210   2.221       .  S
In208       O211   2.283       .  S
In208       O219   2.235   1_565  S
In208       O213   2.226   1_565  S
In208       O215   2.240       .  S
In208       O216   2.252       .  S
In208       O217   2.224       .  S
In208       O220   2.273   1_565  S
C209        O215   1.264       .  A
C209        O217   1.263       .  A
C209       C2431   1.472       .  S
O210        C218   1.255       .  A
O211        C218   1.266       .  A
C212        O219   1.264       .  A
C212        O213   1.263       .  A
C212       C2277   1.473       .  S
C214        O216   1.256       .  A
C214        O220   1.259   1_565  A
C214       C2199   1.482       .  S
C218       C2233   1.482       .  S
In221       O223   2.255       .  S
In221       O224   2.279   1_565  S
In221       O232   2.243   1_565  S
In221       O226   2.245   1_565  S
In221       O228   2.239       .  S
In221       O229   2.291       .  S
In221       O230   2.248       .  S
In221       O233   2.230       .  S
C222        O228   1.261       .  A
C222        O230   1.261       .  A
C222       C2155   1.476       .  S
O223        C231   1.255       .  A
O224        C231   1.258   1_545  A
C225        O232   1.265       .  A
C225        O226   1.263       .  A
C225       C2353   1.481       .  S
C227        O229   1.262       .  A
C227        O233   1.256       .  A
C227       C2177   1.480       .  S
C231       C2133   1.482       .  S
In234       O236   2.220       .  S
In234       O237   2.273       .  S
In234       O245   2.251       .  S
In234       O239   2.234       .  S
In234       O241   2.230       .  S
In234       O242   2.253       .  S
In234       O243   2.268       .  S
In234       O246   2.257       .  S
C235        O241   1.256       .  A
C235        O243   1.262       .  A
C235       C2167   1.477       .  S
O236        C244   1.258       .  A
O237        C244   1.264       .  A
C238        O245   1.268       .  A
C238        O239   1.265       .  A
C238       C2441   1.483       .  S
C240        O242   1.256       .  A
C240        O246   1.257       .  A
C240       C2089   1.472       .  S
C244       C2111   1.480       .  S
C247       C2001   1.566       .  S
C247       C2023   1.577       .  S
C247       C2045   1.572       .  S
C247       C2067   1.575       .  S
C248       C1969   1.566       .  S
C248       C1979   1.585       .  S
C248       C2079   1.591       .  S
C248       C2123   1.566       .  S
C249       C1891   1.566       .  S
C249       C1925   1.564       .  S
C249       C1935   1.597   1_545  S
C249       C2057   1.585   1_545  S
C250       C1869   1.576       .  S
C250       C1947   1.571       .  S
C250       C1991   1.572       .  S
C250       C2189   1.566       .  S
C251       C1803   1.576       .  S
C251       C1825   1.590   1_655  S
C251       C1859   1.571       .  S
C251       C2035   1.594       .  S
C252       C1771   1.574       .  S
C252       C1781   1.582       .  S
C252       C1847   1.584       .  S
C252       C2475   1.560       .  S
C253       C1705   1.560       .  S
C253       C1715   1.568   1_655  S
C253       C1737   1.576   1_655  S
C253       C1913   1.566       .  S
C254       C1683   1.562       .  S
C254       C1749   1.565       .  S
C254       C1759   1.572       .  S
C254       C2387   1.563       .  S
C255       C1617   1.562       .  S
C255       C1627   1.576       .  S
C255       C1649   1.569       .  S
C255       C1727   1.578       .  S
C256       C1661   1.577       .  S
C256       C1671   1.569       .  S
C256       C1957   1.567       .  S
C256       C2299   1.562       .  S
C257       C1561   1.580   1_565  S
C257       C1595   1.568       .  S
C257       C1639   1.592   1_565  S
C257       C1837   1.582       .  S
C258       C1583   1.576       .  S
C258       C1793   1.583       .  S
C258       C1881   1.574       .  S
C258       C2221   1.560       .  S
In259       O261   2.245   1_455  S
In259       O262   2.264   1_455  S
In259       O270   2.264   1_455  S
In259       O264   2.236       .  S
In259       O266   2.258       .  S
In259       O267   2.229       .  S
In259       O268   2.234       .  S
In259       O271   2.281   1_455  S
C260        O266   1.262       .  A
C260        O268   1.261       .  A
C260       C1529   1.478       .  S
O261        C269   1.258       .  A
O262        C269   1.261       .  A
C263        O270   1.262       .  A
C263        O264   1.260   1_655  A
C263       C1551   1.479       .  S
C265        O267   1.255   1_655  A
C265        O271   1.260       .  A
C265       C3465   1.479       .  S
C269       C1693   1.477       .  S
In272       O274   2.238       .  S
In272       O275   2.268       .  S
In272       O283   2.246       .  S
In272       O277   2.249       .  S
In272       O279   2.243       .  S
In272       O280   2.262       .  S
In272       O281   2.251       .  S
In272       O284   2.231       .  S
C273        O279   1.262       .  A
C273        O281   1.260       .  A
C273       C1517   1.477       .  S
O274        C282   1.258       .  A
O275        C282   1.260       .  A
C276        O283   1.261       .  A
C276        O277   1.261       .  A
C276       C1495   1.478       .  S
C278        O280   1.262       .  A
C278        O284   1.258       .  A
C278       C1605   1.476       .  S
C282       C3531   1.479       .  S
In285       O287   2.246       .  S
In285       O288   2.278       .  S
In285       O296   2.267       .  S
In285       O290   2.225       .  S
In285       O292   2.243       .  S
In285       O293   2.302       .  S
In285       O294   2.222       .  S
In285       O297   2.220       .  S
C286        O292   1.263       .  A
C286        O294   1.261       .  A
C286       C1473   1.470       .  S
O287        C295   1.258       .  A
O288        C295   1.261       .  A
C289        O296   1.266       .  A
C289        O290   1.260       .  A
C289       C1507   1.481       .  S
C291        O293   1.264       .  A
C291        O297   1.253       .  A
C291       C3597   1.480       .  S
C295       C2013   1.484       .  S
In298       O300   2.206       .  S
In298       O301   2.275   1_565  S
In298       O309   2.243   1_565  S
In298       O303   2.232       .  S
In298       O305   2.246       .  S
In298       O306   2.260   1_565  S
In298       O307   2.223       .  S
In298       O310   2.209       .  S
C299        O305   1.265       .  A
C299        O307   1.263       .  A
C299       C1485   1.474       .  S
O300        C308   1.257       .  A
O301        C308   1.265   1_545  A
C302        O309   1.262   1_565  A
C302        O303   1.262       .  A
C302       C1451   1.476       .  S
C304        O306   1.265       .  A
C304        O310   1.259   1_545  A
C304       C1903   1.474       .  S
C308       C3399   1.470   1_565  S
In311       O313   2.266   1_565  S
In311       O314   2.240       .  S
In311       O322   2.253   1_565  S
In311       O316   2.236       .  S
In311       O318   2.236       .  S
In311       O319   2.241       .  S
In311       O320   2.238       .  S
In311       O323   2.265   1_565  S
C312        O318   1.262       .  A
C312        O320   1.262       .  A
C312       C1441   1.473       .  S
O313        C321   1.260       .  A
O314        C321   1.254   1_565  A
C315        O322   1.265   1_565  A
C315        O316   1.262       .  A
C315       C1463   1.479       .  S
C317        O319   1.255   1_545  A
C317        O323   1.259       .  A
C317       C3333   1.476       .  S
C321       C1573   1.475       .  S
In324       O326   2.246       .  S
In324       O327   2.269       .  S
In324       O335   2.254       .  S
In324       O329   2.238   1_655  S
In324       O331   2.235   1_655  S
In324       O332   2.250       .  S
In324       O333   2.247   1_655  S
In324       O336   2.260       .  S
C325        O331   1.262       .  A
C325        O333   1.263       .  A
C325       C1429   1.475       .  S
O326        C334   1.257       .  A
O327        C334   1.258       .  A
C328        O335   1.262       .  A
C328        O329   1.260   1_655  A
C328       C1539   1.477       .  S
C330        O332   1.258       .  A
C330        O336   1.260       .  A
C330       C1815   1.478       .  S
C334       C3289   1.479       .  S
In337       O339   2.272   1_545  S
In337       O340   2.249       .  S
In337       O348   2.265   1_545  S
In337       O342   2.248   1_545  S
In337       O344   2.241       .  S
In337       O345   2.257   1_545  S
In337       O346   2.243       .  S
In337       O349   2.267       .  S
C338        O344   1.262       .  A
C338        O346   1.262       .  A
C338       C1363   1.475       .  S
O339        C347   1.260   1_565  A
O340        C347   1.257       .  A
C341        O348   1.263       .  A
C341        O342   1.260       .  A
C341       C1385   1.483       .  S
C343        O345   1.258   1_545  A
C343        O349   1.258       .  A
C343       C1407   1.482       .  S
C347       C2145   1.483   1_545  S
In350       O352   2.234       .  S
In350       O353   2.276       .  S
In350       O361   2.255       .  S
In350       O355   2.258       .  S
In350       O357   2.245       .  S
In350       O358   2.255       .  S
In350       O359   2.249       .  S
In350       O362   2.267       .  S
C351        O357   1.263       .  A
C351        O359   1.264       .  A
C351       C1319   1.481       .  S
O352        C360   1.254       .  A
O353        C360   1.259       .  A
C354        O361   1.263       .  A
C354        O355   1.263       .  A
C354       C1397   1.485       .  S
C356        O358   1.255       .  A
C356        O362   1.258       .  A
C356       C2101   1.478       .  S
C360       C1341   1.477       .  S
In363       O365   2.259       .  S
In363       O366   2.265   1_655  S
In363       O374   2.266   1_655  S
In363       O368   2.236   1_655  S
In363       O370   2.257       .  S
In363       O371   2.264       .  S
In363       O372   2.246       .  S
In363       O375   2.246       .  S
C364        O370   1.262       .  A
C364        O372   1.261       .  A
C364       C1331   1.481       .  S
O365        C373   1.256       .  A
O366        C373   1.257   1_455  A
C367        O374   1.263       .  A
C367        O368   1.263       .  A
C367       C1275   1.482       .  S
C369        O371   1.260       .  A
C369        O375   1.257       .  A
C369       C1309   1.479       .  S
C373       C2409   1.481       .  S
In376       O378   2.255       .  S
In376       O379   2.244       .  S
In376       O387   2.278   1_545  S
In376       O381   2.221   1_545  S
In376       O383   2.245       .  S
In376       O384   2.256   1_545  S
In376       O385   2.264       .  S
In376       O388   2.255       .  S
C377        O383   1.260       .  A
C377        O385   1.261       .  A
C377       C1231   1.479       .  S
O378        C386   1.262       .  A
O379        C386   1.260       .  A
C380        O387   1.263       .  A
C380        O381   1.259       .  A
C380       C1287   1.480       .  S
C382        O384   1.259   1_545  A
C382        O388   1.258       .  A
C382       C2211   1.480       .  S
C386       C1253   1.477       .  S
In389       O391   2.243       .  S
In389       O392   2.264       .  S
In389       O400   2.244       .  S
In389       O394   2.245       .  S
In389       O396   2.239       .  S
In389       O397   2.246       .  S
In389       O398   2.249       .  S
In389       O401   2.274       .  S
C390        O396   1.261       .  A
C390        O398   1.263       .  A
C390       C1243   1.477       .  S
O391        C399   1.257       .  A
O392        C399   1.258       .  A
C393        O400   1.264       .  A
C393        O394   1.261       .  A
C393       C1199   1.479       .  S
C395        O397   1.257       .  A
C395        O401   1.260       .  A
C395       C1209   1.480       .  S
C399       C2255   1.476       .  S
In402       O404   2.236       .  S
In402       O405   2.270       .  S
In402       O413   2.242   1_655  S
In402       O407   2.263       .  S
In402       O409   2.242       .  S
In402       O410   2.267       .  S
In402       O411   2.237       .  S
In402       O414   2.249       .  S
C403        O409   1.262       .  A
C403        O411   1.263       .  A
C403       C1375   1.474       .  S
O404        C412   1.257       .  A
O405        C412   1.260       .  A
C406        O413   1.259       .  A
C406        O407   1.260   1_455  A
C406       C1187   1.479       .  S
C408        O410   1.259       .  A
C408        O414   1.257       .  A
C408       C2321   1.480       .  S
C412       C1165   1.478       .  S
C415       C1077   1.561       .  S
C415       C1099   1.572       .  S
C415       C1121   1.576       .  S
C415       C1143   1.572       .  S
C416       C1033   1.569       .  S
C416       C1055   1.569       .  S
C416       C1155   1.575       .  S
C416       C1353   1.556       .  S
C417        C967   1.561       .  S
C417        C989   1.583       .  S
C417       C1023   1.585       .  S
C417       C1133   1.584   1_545  S
C418        C935   1.572       .  S
C418        C945   1.572       .  S
C418       C1011   1.570       .  S
C418       C1419   1.557       .  S
C419        C879   1.567       .  S
C419        C913   1.573       .  S
C419       C1067   1.568       .  S
C419       C1221   1.558       .  S
C420        C813   1.556       .  S
C420        C835   1.576       .  S
C420        C857   1.569       .  S
C420        C901   1.567       .  S
C421        C791   1.578       .  S
C421        C891   1.570       .  S
C421        C957   1.572       .  S
C421       C1265   1.555       .  S
C422        C759   1.555   1_545  S
C422        C769   1.574   1_545  S
C422        C803   1.571       .  S
C422        C869   1.565       .  S
C423        C715   1.558       .  S
C423        C737   1.571       .  S
C423        C781   1.571   1_655  S
C423       C1111   1.569       .  S
C424        C681   1.573       .  S
C424        C725   1.575       .  S
C424       C1045   1.570       .  S
C424       C1297   1.554       .  S
C425        C659   1.570       .  S
C425        C693   1.572       .  S
C425        C923   1.569       .  S
C425       C1177   1.557       .  S
C426        C649   1.559       .  S
C426        C671   1.580       .  S
C426        C847   1.581   1_655  S
C426       C1001   1.583       .  S
In427       O429   2.223       .  S
In427       O430   2.278       .  S
In427       O438   2.261       .  S
In427       O432   2.221       .  S
In427       O434   2.242       .  S
In427       O435   2.246       .  S
In427       O436   2.258       .  S
In427       O439   2.259       .  S
C428        O434   1.259       .  A
C428        O436   1.260       .  A
C428        C593   1.478       .  S
O429        C437   1.256       .  A
O430        C437   1.263       .  A
C431        O438   1.265       .  A
C431        O432   1.262       .  A
C431        C615   1.478       .  S
C433        O435   1.258   1_455  A
C433        O439   1.261   1_455  A
C433       C2651   1.475       .  S
C437        C637   1.480       .  S
In440       O442   2.254       .  S
In440       O443   2.258   1_655  S
In440       O451   2.255   1_655  S
In440       O445   2.236       .  S
In440       O447   2.253       .  S
In440       O448   2.275       .  S
In440       O449   2.253       .  S
In440       O452   2.244       .  S
C441        O447   1.261       .  A
C441        O449   1.261       .  A
C441        C571   1.480       .  S
O442        C450   1.259   1_655  A
O443        C450   1.258       .  A
C444        O451   1.263   1_655  A
C444        O445   1.261       .  A
C444        C627   1.478       .  S
C446        O448   1.259   1_455  A
C446        O452   1.257   1_455  A
C446        C703   1.481       .  S
C450       C2695   1.480       .  S
In453       O455   2.248       .  S
In453       O456   2.277       .  S
In453       O464   2.254       .  S
In453       O458   2.253       .  S
In453       O460   2.251       .  S
In453       O461   2.257       .  S
In453       O462   2.246       .  S
In453       O465   2.258       .  S
C454        O460   1.261       .  A
C454        O462   1.261       .  A
C454        C583   1.478       .  S
O455        C463   1.257       .  A
O456        C463   1.260       .  A
C457        O464   1.262       .  A
C457        O458   1.262       .  A
C457        C561   1.482       .  S
C459        O461   1.259       .  A
C459        O465   1.259       .  A
C459       C2563   1.481       .  S
C463       C1089   1.484       .  S
In466       O468   2.236   1_545  S
In466       O469   2.262   1_545  S
In466       O477   2.257   1_545  S
In466       O471   2.234       .  S
In466       O473   2.249       .  S
In466       O474   2.219       .  S
In466       O475   2.245       .  S
In466       O478   2.287   1_545  S
C467        O473   1.261       .  A
C467        O475   1.258       .  A
C467        C605   1.475       .  S
O468        C476   1.258       .  A
O469        C476   1.261       .  A
C470        O477   1.266   1_545  A
C470        O471   1.262       .  A
C470        C539   1.482       .  S
C472        O474   1.257       .  A
C472        O478   1.263   1_545  A
C472        C979   1.483       .  S
C476       C2607   1.474       .  S
In479       O481   2.234       .  S
In479       O482   2.281       .  S
In479       O490   2.242       .  S
In479       O484   2.248   1_565  S
In479       O486   2.262   1_565  S
In479       O487   2.262       .  S
In479       O488   2.247   1_565  S
In479       O491   2.250       .  S
C480        O486   1.261       .  A
C480        O488   1.261       .  A
C480        C505   1.481       .  S
O481        C489   1.256       .  A
O482        C489   1.261       .  A
C483        O490   1.262   1_545  A
C483        O484   1.263       .  A
C483        C527   1.478       .  S
C485        O487   1.259       .  A
C485        O491   1.256       .  A
C485       C2497   1.478       .  S
C489        C747   1.480       .  S
In492       O494   2.254       .  S
In492       O495   2.257       .  S
In492       O503   2.261       .  S
In492       O497   2.248       .  S
In492       O499   2.253       .  S
In492       O500   2.272       .  S
In492       O501   2.245       .  S
In492       O504   2.236       .  S
C493        O499   1.263       .  A
C493        O501   1.262       .  A
C493        C517   1.480       .  S
O494        C502   1.258       .  A
O495        C502   1.258       .  A
C496        O503   1.260       .  A
C496        O497   1.260       .  A
C496        C549   1.481       .  S
C498        O500   1.261       .  A
C498        O504   1.258       .  A
C498        C825   1.479       .  S
C502       C2519   1.479       .  S
C505        C506   1.399       .  A
C505        C510   1.403       .  A
C506        C507   1.395       .  A
C506        H519   1.083       .  S
C507        C508   1.414       .  A
C507        H520   1.077       .  S
C508        C514   1.431       .  A
C508        C509   1.423       .  A
C509        C511   1.400       .  A
C509        C510   1.409       .  A
C510        H521   1.084       .  S
C511        C512   1.392       .  A
C511        H522   1.084       .  S
C512        C513   1.400       .  A
C512        H523   1.084       .  S
C513        C514   1.422       .  A
C513        C518   1.407       .  A
C514        C515   1.415       .  A
C515        C516   1.396       .  A
C515        H524   1.077       .  S
C516        C517   1.400       .  A
C516        H525   1.083       .  S
C517        C518   1.402       .  A
C518        H526   1.085       .  S
C527        C528   1.400   1_545  A
C527        C532   1.400       .  A
C528        C529   1.398       .  A
C528        H541   1.083       .  S
C529        C530   1.415   1_565  A
C529        H542   1.077       .  S
C530        C536   1.432       .  A
C530        C531   1.423       .  A
C531        C533   1.399       .  A
C531        C532   1.405       .  A
C532        H543   1.085       .  S
C533        C534   1.389       .  A
C533        H544   1.084       .  S
C534        C535   1.400       .  A
C534        H545   1.084       .  S
C535        C536   1.422       .  A
C535        C540   1.405       .  A
C536        C537   1.416   1_545  A
C537        C538   1.399       .  A
C537        H546   1.077       .  S
C538        C539   1.400   1_565  A
C538        H547   1.083       .  S
C539        C540   1.403       .  A
C540        H548   1.085       .  S
C549        C550   1.399       .  A
C549        C554   1.403       .  A
C550        C551   1.396       .  A
C550        H563   1.083       .  S
C551        C552   1.414       .  A
C551        H564   1.077       .  S
C552        C558   1.432       .  A
C552        C553   1.423       .  A
C553        C555   1.400       .  A
C553        C554   1.408       .  A
C554        H565   1.084       .  S
C555        C556   1.392       .  A
C555        H566   1.084       .  S
C556        C557   1.400       .  A
C556        H567   1.084       .  S
C557        C558   1.422       .  A
C557        C562   1.408       .  A
C558        C559   1.416       .  A
C559        C560   1.397       .  A
C559        H568   1.077       .  S
C560        C561   1.400       .  A
C560        H569   1.083       .  S
C561        C562   1.403       .  A
C562        H570   1.084       .  S
C571        C572   1.400       .  A
C571        C576   1.402       .  A
C572        C573   1.397       .  A
C572        H585   1.083       .  S
C573        C574   1.415       .  A
C573        H586   1.077       .  S
C574        C580   1.431       .  A
C574        C575   1.423       .  A
C575        C577   1.400       .  A
C575        C576   1.406       .  A
C576        H587   1.084       .  S
C577        C578   1.390       .  A
C577        H588   1.084       .  S
C578        C579   1.400       .  A
C578        H589   1.084       .  S
C579        C580   1.423       .  A
C579        C584   1.406       .  A
C580        C581   1.415       .  A
C581        C582   1.396       .  A
C581        H590   1.077       .  S
C582        C583   1.400       .  A
C582        H591   1.083       .  S
C583        C584   1.401       .  A
C584        H592   1.085       .  S
C593        C594   1.400       .  A
C593        C598   1.400       .  A
C594        C595   1.399       .  A
C594        H607   1.083       .  S
C595        C596   1.416       .  A
C595        H608   1.077       .  S
C596        C602   1.430       .  A
C596        C597   1.422       .  A
C597        C599   1.399       .  A
C597        C598   1.403       .  A
C598        H609   1.084       .  S
C599        C600   1.388       .  A
C599        H610   1.084       .  S
C600        C601   1.398       .  A
C600        H611   1.084       .  S
C601        C602   1.423       .  A
C601        C606   1.403       .  A
C602        C603   1.415       .  A
C603        C604   1.397       .  A
C603        H612   1.077       .  S
C604        C605   1.400       .  A
C604        H613   1.083       .  S
C605        C606   1.399       .  A
C606        H614   1.085       .  S
C615        C616   1.399       .  A
C615        C620   1.402       .  A
C616        C617   1.392       .  A
C616        H629   1.084       .  S
C617        C618   1.413       .  A
C617        H630   1.076       .  S
C618        C624   1.429       .  A
C618        C619   1.423       .  A
C619        C621   1.400   1_655  A
C619        C620   1.409       .  A
C620        H631   1.084   1_655  S
C621        C622   1.393       .  A
C621        H632   1.084       .  S
C622        C623   1.401       .  A
C622        H633   1.084       .  S
C623        C624   1.422   1_455  A
C623        C628   1.408       .  A
C624        C625   1.414       .  A
C625        C626   1.393       .  A
C625        H634   1.076       .  S
C626        C627   1.399       .  A
C626        H635   1.084       .  S
C627        C628   1.403   1_655  A
C628        H636   1.084       .  S
C637        C638   1.401   1_655  A
C637        C642   1.400       .  A
C638        C639   1.403       .  A
C638        H651   1.083       .  S
C639        C640   1.417   1_455  A
C639        H652   1.078       .  S
C640        C646   1.433       .  A
C640        C641   1.423       .  A
C641        C643   1.398       .  A
C641        C642   1.400       .  A
C642        H653   1.085       .  S
C643        C644   1.385       .  A
C643        H654   1.084       .  S
C644        C645   1.398       .  A
C644        H655   1.084       .  S
C645        C646   1.419       .  A
C645        C650   1.397       .  A
C646        C647   1.416   1_655  A
C647        C648   1.404       .  A
C647        H656   1.078       .  S
C648        C649   1.410   1_455  A
C648        H657   1.079       .  S
C649        C650   1.412       .  A
C650        H658   1.084       .  S
C659        C660   1.408       .  A
C659        C664   1.418       .  A
C660        C661   1.414       .  A
C660        H673   1.080       .  S
C661        C662   1.423       .  A
C661        H674   1.078       .  S
C662        C668   1.443       .  A
C662        C663   1.415       .  A
C663        C665   1.403       .  A
C663        C664   1.406       .  A
C664        H675   1.083       .  S
C665        C666   1.393       .  A
C665        H676   1.084       .  S
C666        C667   1.399       .  A
C666        H677   1.084       .  S
C667        C668   1.426       .  A
C667        C672   1.419       .  A
C668        C669   1.408       .  A
C669        C670   1.402       .  A
C669        H678   1.079       .  S
C670        C671   1.419       .  A
C670        H679   1.081       .  S
C671        C672   1.411       .  A
C672        H680   1.084       .  S
C681        C682   1.414       .  A
C681        C686   1.416       .  A
C682        C683   1.419       .  A
C682        H695   1.082       .  S
C683        C684   1.420       .  A
C683        H696   1.079       .  S
C684        C690   1.450       .  A
C684        C685   1.419       .  A
C685        C687   1.400       .  A
C685        C686   1.411       .  A
C686        H697   1.083       .  S
C687        C688   1.392       .  A
C687        H698   1.084       .  S
C688        C689   1.401       .  A
C688        H699   1.084       .  S
C689        C690   1.422       .  A
C689        C694   1.415       .  A
C690        C691   1.416       .  A
C691        C692   1.415       .  A
C691        H700   1.080       .  S
C692        C693   1.416       .  A
C692        H701   1.082       .  S
C693        C694   1.416       .  A
C694        H702   1.082       .  S
C703        C704   1.401       .  A
C703        C708   1.401       .  A
C704        C705   1.401       .  A
C704        H717   1.083       .  S
C705        C706   1.416       .  A
C705        H718   1.078       .  S
C706        C712   1.432       .  A
C706        C707   1.423       .  A
C707        C709   1.399       .  A
C707        C708   1.403       .  A
C708        H719   1.085       .  S
C709        C710   1.388       .  A
C709        H720   1.084       .  S
C710        C711   1.399       .  A
C710        H721   1.084       .  S
C711        C712   1.419       .  A
C711        C716   1.402       .  A
C712        C713   1.414       .  A
C713        C714   1.402   1_455  A
C713        H722   1.078       .  S
C714        C715   1.409       .  A
C714        H723   1.083       .  S
C715        C716   1.411   1_655  A
C716        H724   1.083       .  S
C725        C726   1.408       .  A
C725        C730   1.424       .  A
C726        C727   1.412       .  A
C726        H739   1.083       .  S
C727        C728   1.421       .  A
C727        H740   1.078       .  S
C728        C734   1.445       .  A
C728        C729   1.415       .  A
C729        C731   1.405       .  A
C729        C730   1.414       .  A
C730        H741   1.080       .  S
C731        C732   1.397       .  A
C731        H742   1.084       .  S
C732        C733   1.401       .  A
C732        H743   1.084       .  S
C733        C734   1.427       .  A
C733        C738   1.426       .  A
C734        C735   1.408       .  A
C735        C736   1.399       .  A
C735        H744   1.078       .  S
C736        C737   1.417       .  A
C736        H745   1.083       .  S
C737        C738   1.411       .  A
C738        H746   1.083       .  S
C747        C748   1.400       .  A
C747        C752   1.403       .  A
C748        C749   1.393       .  A
C748        H761   1.083       .  S
C749        C750   1.413       .  A
C749        H762   1.077       .  S
C750        C756   1.429       .  A
C750        C751   1.422       .  A
C751        C753   1.401       .  A
C751        C752   1.410       .  A
C752        H763   1.084       .  S
C753        C754   1.394       .  A
C753        H764   1.084       .  S
C754        C755   1.401       .  A
C754        H765   1.084       .  S
C755        C756   1.420       .  A
C755        C760   1.410       .  A
C756        C757   1.409       .  A
C757        C758   1.391       .  A
C757        H766   1.077       .  S
C758        C759   1.411       .  A
C758        H767   1.081       .  S
C759        C760   1.412       .  A
C760        H768   1.084   1_565  S
C769        C770   1.415       .  A
C769        C774   1.417       .  A
C770        C771   1.415       .  A
C770        H783   1.082       .  S
C771        C772   1.418       .  A
C771        H784   1.079       .  S
C772        C778   1.452       .  A
C772        C773   1.421       .  A
C773        C775   1.400       .  A
C773        C774   1.414       .  A
C774        H785   1.082       .  S
C775        C776   1.391       .  A
C775        H786   1.084       .  S
C776        C777   1.400       .  A
C776        H787   1.084       .  S
C777        C778   1.422       .  A
C777        C782   1.414       .  A
C778        C779   1.418       .  A
C779        C780   1.416       .  A
C779        H788   1.079       .  S
C780        C781   1.414       .  A
C780        H789   1.082       .  S
C781        C782   1.416       .  A
C782        H790   1.082   1_455  S
C791        C792   1.423       .  A
C791        C796   1.412       .  A
C792        C793   1.402       .  A
C792        H805   1.079       .  S
C793        C794   1.406       .  A
C793        H806   1.078       .  S
C794        C800   1.447       .  A
C794        C795   1.426       .  A
C795        C797   1.400       .  A
C795        C796   1.425       .  A
C796        H807   1.084       .  S
C797        C798   1.396       .  A
C797        H808   1.084       .  S
C798        C799   1.404       .  A
C798        H809   1.084       .  S
C799        C800   1.416       .  A
C799        C804   1.411       .  A
C800        C801   1.424       .  A
C801        C802   1.415       .  A
C801        H810   1.078       .  S
C802        C803   1.407       .  A
C802        H811   1.082   1_545  S
C803        C804   1.419       .  A
C804        H812   1.084       .  S
C813        C814   1.411       .  A
C813        C818   1.410       .  A
C814        C815   1.389       .  A
C814        H827   1.082       .  S
C815        C816   1.408       .  A
C815        H828   1.077       .  S
C816        C822   1.428       .  A
C816        C817   1.421       .  A
C817        C819   1.401       .  A
C817        C818   1.411       .  A
C818        H829   1.084       .  S
C819        C820   1.394       .  A
C819        H830   1.083       .  S
C820        C821   1.402       .  A
C820        H831   1.084       .  S
C821        C822   1.421       .  A
C821        C826   1.410       .  A
C822        C823   1.414       .  A
C823        C824   1.392       .  A
C823        H832   1.077       .  S
C824        C825   1.399       .  A
C824        H833   1.083       .  S
C825        C826   1.404       .  A
C826        H834   1.085       .  S
C835        C836   1.417       .  A
C835        C840   1.419       .  A
C836        C837   1.405       .  A
C836        H849   1.079       .  S
C837        C838   1.412       .  A
C837        H850   1.078       .  S
C838        C844   1.445       .  A
C838        C839   1.421       .  A
C839        C841   1.404       .  A
C839        C840   1.424       .  A
C840        H851   1.083       .  S
C841        C842   1.401       .  A
C841        H852   1.083       .  S
C842        C843   1.404       .  A
C842        H853   1.084       .  S
C843        C844   1.419       .  A
C843        C848   1.424       .  A
C844        C845   1.412       .  A
C845        C846   1.406       .  A
C845        H854   1.079       .  S
C846        C847   1.415       .  A
C846        H855   1.077   1_455  S
C847        C848   1.420       .  A
C848        H856   1.084       .  S
C857        C858   1.411       .  A
C857        C862   1.415       .  A
C858        C859   1.403       .  A
C858        H871   1.083       .  S
C859        C860   1.414       .  A
C859        H872   1.078       .  S
C860        C866   1.442       .  A
C860        C861   1.421       .  A
C861        C863   1.401       .  A
C861        C862   1.414       .  A
C862        H873   1.081       .  S
C863        C864   1.393       .  A
C863        H874   1.084       .  S
C864        C865   1.401       .  A
C864        H875   1.084       .  S
C865        C866   1.422       .  A
C865        C870   1.415       .  A
C866        C867   1.414       .  A
C867        C868   1.403       .  A
C867        H876   1.078       .  S
C868        C869   1.410       .  A
C868        H877   1.083       .  S
C869        C870   1.414       .  A
C870        H878   1.081       .  S
C879        C880   1.410       .  A
C879        C884   1.417       .  A
C880        C881   1.397       .  A
C880        H893   1.082       .  S
C881        C882   1.412       .  A
C881        H894   1.077       .  S
C882        C888   1.437       .  A
C882        C883   1.420       .  A
C883        C885   1.403       .  A
C883        C884   1.417       .  A
C884        H895   1.082       .  S
C885        C886   1.397       .  A
C885        H896   1.084       .  S
C886        C887   1.402       .  A
C886        H897   1.084       .  S
C887        C888   1.421       .  A
C887        C892   1.417       .  A
C888        C889   1.411       .  A
C889        C890   1.396       .  A
C889        H898   1.077       .  S
C890        C891   1.411       .  A
C890        H899   1.082       .  S
C891        C892   1.416       .  A
C892        H900   1.081       .  S
C901        C902   1.417       .  A
C901        C906   1.409       .  A
C902        C903   1.396       .  A
C902        H915   1.083       .  S
C903        C904   1.406       .  A
C903        H916   1.078       .  S
C904        C910   1.442       .  A
C904        C905   1.429       .  A
C905        C907   1.400       .  A
C905        C906   1.425       .  A
C906        H917   1.083       .  S
C907        C908   1.396       .  A
C907        H918   1.084       .  S
C908        C909   1.405       .  A
C908        H919   1.084       .  S
C909        C910   1.414       .  A
C909        C914   1.410       .  A
C910        C911   1.421       .  A
C911        C912   1.410       .  A
C911        H920   1.078       .  S
C912        C913   1.408       .  A
C912        H921   1.083       .  S
C913        C914   1.424       .  A
C914        H922   1.080       .  S
C923        C924   1.412       .  A
C923        C928   1.415       .  A
C924        C925   1.396       .  A
C924        H937   1.080       .  S
C925        C926   1.411       .  A
C925        H938   1.077       .  S
C926        C932   1.438       .  A
C926        C927   1.421       .  A
C927        C929   1.403       .  A
C927        C928   1.418       .  A
C928        H939   1.084       .  S
C929        C930   1.398       .  A
C929        H940   1.084       .  S
C930        C931   1.403       .  A
C930        H941   1.084       .  S
C931        C932   1.420       .  A
C931        C936   1.418       .  A
C932        C933   1.411       .  A
C933        C934   1.397       .  A
C933        H942   1.077       .  S
C934        C935   1.412       .  A
C934        H943   1.079       .  S
C935        C936   1.416       .  A
C936        H944   1.084       .  S
C945        C946   1.415       .  A
C945        C950   1.421       .  A
C946        C947   1.402       .  A
C946        H959   1.081       .  S
C947        C948   1.412       .  A
C947        H960   1.078       .  S
C948        C954   1.445       .  A
C948        C949   1.419       .  A
C949        C951   1.405       .  A
C949        C950   1.427       .  A
C950        H961   1.082       .  S
C951        C952   1.404       .  A
C951        H962   1.083       .  S
C952        C953   1.405       .  A
C952        H963   1.083       .  S
C953        C954   1.423       .  A
C953        C958   1.431       .  A
C954        C955   1.409       .  A
C955        C956   1.398       .  A
C955        H964   1.078       .  S
C956        C957   1.415       .  A
C956        H965   1.082       .  S
C957        C958   1.419       .  A
C958        H966   1.083       .  S
C967        C968   1.412       .  A
C967        C972   1.416   1_545  A
C968        C969   1.387       .  A
C968        H981   1.083       .  S
C969        C970   1.407       .  A
C969        H982   1.077       .  S
C970        C976   1.427       .  A
C970        C971   1.419   1_545  A
C971        C973   1.403       .  A
C971        C972   1.414       .  A
C972        H983   1.079       .  S
C973        C974   1.398       .  A
C973        H984   1.084       .  S
C974        C975   1.403       .  A
C974        H985   1.084       .  S
C975        C976   1.422   1_565  A
C975        C980   1.414       .  A
C976        C977   1.411       .  A
C977        C978   1.389       .  A
C977        H986   1.077       .  S
C978        C979   1.400       .  A
C978        H987   1.083       .  S
C979        C980   1.406   1_545  A
C980        H988   1.084       .  S
C989        C990   1.417       .  A
C989        C994   1.415       .  A
C990        C991   1.409       .  A
C990       H1003   1.083       .  S
C991        C992   1.414       .  A
C991       H1004   1.078       .  S
C992        C998   1.442       .  A
C992        C993   1.419       .  A
C993        C995   1.399       .  A
C993        C994   1.405       .  A
C994       H1005   1.074       .  S
C995        C996   1.385       .  A
C995       H1006   1.084       .  S
C996        C997   1.399       .  A
C996       H1007   1.084       .  S
C997        C998   1.419       .  A
C997       C1002   1.405       .  A
C998        C999   1.415       .  A
C999       C1000   1.410       .  A
C999       H1008   1.079       .  S
C1000      C1001   1.417       .  A
C1000      H1009   1.083       .  S
C1001      C1002   1.415       .  A
C1002      H1010   1.074       .  S
C1011      C1012   1.417       .  A
C1011      C1016   1.411       .  A
C1012      C1013   1.395       .  A
C1012      H1025   1.081       .  S
C1013      C1014   1.405       .  A
C1013      H1026   1.078       .  S
C1014      C1020   1.442       .  A
C1014      C1015   1.428       .  A
C1015      C1017   1.401       .  A
C1015      C1016   1.427       .  A
C1016      H1027   1.082       .  S
C1017      C1018   1.397       .  A
C1017      H1028   1.084       .  S
C1018      C1019   1.405       .  A
C1018      H1029   1.084       .  S
C1019      C1020   1.414       .  A
C1019      C1024   1.412       .  A
C1020      C1021   1.422       .  A
C1021      C1022   1.411       .  A
C1021      H1030   1.078       .  S
C1022      C1023   1.409       .  A
C1022      H1031   1.083       .  S
C1023      C1024   1.425       .  A
C1024      H1032   1.080       .  S
C1033      C1034   1.413       .  A
C1033      C1038   1.412       .  A
C1034      C1035   1.407       .  A
C1034      H1047   1.080       .  S
C1035      C1036   1.415       .  A
C1035      H1048   1.078       .  S
C1036      C1042   1.442       .  A
C1036      C1037   1.421       .  A
C1037      C1039   1.400       .  A
C1037      C1038   1.410       .  A
C1038      H1049   1.084       .  S
C1039      C1040   1.391       .  A
C1039      H1050   1.084       .  S
C1040      C1041   1.400       .  A
C1040      H1051   1.084       .  S
C1041      C1042   1.420       .  A
C1041      C1046   1.410       .  A
C1042      C1043   1.415       .  A
C1043      C1044   1.407       .  A
C1043      H1052   1.078       .  S
C1044      C1045   1.413       .  A
C1044      H1053   1.080       .  S
C1045      C1046   1.413       .  A
C1046      H1054   1.084       .  S
C1055      C1056   1.412       .  A
C1055      C1060   1.412       .  A
C1056      C1057   1.420       .  A
C1056      H1069   1.081       .  S
C1057      C1058   1.422       .  A
C1057      H1070   1.079       .  S
C1058      C1064   1.451       .  A
C1058      C1059   1.421       .  A
C1059      C1061   1.398       .  A
C1059      C1060   1.405       .  A
C1060      H1071   1.084       .  S
C1061      C1062   1.386       .  A
C1061      H1072   1.084       .  S
C1062      C1063   1.398       .  A
C1062      H1073   1.084       .  S
C1063      C1064   1.421       .  A
C1063      C1068   1.405       .  A
C1064      C1065   1.421       .  A
C1065      C1066   1.420       .  A
C1065      H1074   1.079       .  S
C1066      C1067   1.413       .  A
C1066      H1075   1.081       .  S
C1067      C1068   1.411       .  A
C1068      H1076   1.084       .  S
C1077      C1078   1.409       .  A
C1077      C1082   1.413       .  A
C1078      C1079   1.404       .  A
C1078      H1091   1.083       .  S
C1079      C1080   1.415       .  A
C1079      H1092   1.078       .  S
C1080      C1086   1.434       .  A
C1080      C1081   1.419       .  A
C1081      C1083   1.399       .  A
C1081      C1082   1.401       .  A
C1082      H1093   1.083       .  S
C1083      C1084   1.388       .  A
C1083      H1094   1.084       .  S
C1084      C1085   1.398       .  A
C1084      H1095   1.084       .  S
C1085      C1086   1.423       .  A
C1085      C1090   1.404       .  A
C1086      C1087   1.416       .  A
C1087      C1088   1.403       .  A
C1087      H1096   1.078       .  S
C1088      C1089   1.402       .  A
C1088      H1097   1.083       .  S
C1089      C1090   1.400       .  A
C1090      H1098   1.085       .  S
C1099      C1100   1.412       .  A
C1099      C1104   1.415       .  A
C1100      C1101   1.408       .  A
C1100      H1113   1.083       .  S
C1101      C1102   1.416       .  A
C1101      H1114   1.078       .  S
C1102      C1108   1.443       .  A
C1102      C1103   1.421       .  A
C1103      C1105   1.400       .  A
C1103      C1104   1.411       .  A
C1104      H1115   1.080       .  S
C1105      C1106   1.390       .  A
C1105      H1116   1.084       .  S
C1106      C1107   1.400       .  A
C1106      H1117   1.084       .  S
C1107      C1108   1.422       .  A
C1107      C1112   1.411       .  A
C1108      C1109   1.415       .  A
C1109      C1110   1.407       .  A
C1109      H1118   1.078       .  S
C1110      C1111   1.411       .  A
C1110      H1119   1.083       .  S
C1111      C1112   1.414       .  A
C1112      H1120   1.081       .  S
C1121      C1122   1.414       .  A
C1121      C1126   1.419       .  A
C1122      C1123   1.413       .  A
C1122      H1135   1.082       .  S
C1123      C1124   1.416       .  A
C1123      H1136   1.079       .  S
C1124      C1130   1.451       .  A
C1124      C1125   1.421       .  A
C1125      C1127   1.402       .  A
C1125      C1126   1.418       .  A
C1126      H1137   1.080       .  S
C1127      C1128   1.394       .  A
C1127      H1138   1.084       .  S
C1128      C1129   1.402       .  A
C1128      H1139   1.084       .  S
C1129      C1130   1.420       .  A
C1129      C1134   1.417       .  A
C1130      C1131   1.418       .  A
C1131      C1132   1.415       .  A
C1131      H1140   1.079       .  S
C1132      C1133   1.415       .  A
C1132      H1141   1.083       .  S
C1133      C1134   1.418       .  A
C1134      H1142   1.077       .  S
C1143      C1144   1.416       .  A
C1143      C1148   1.413       .  A
C1144      C1145   1.397       .  A
C1144      H1157   1.082       .  S
C1145      C1146   1.406       .  A
C1145      H1158   1.078       .  S
C1146      C1152   1.443       .  A
C1146      C1147   1.427       .  A
C1147      C1149   1.401       .  A
C1147      C1148   1.428       .  A
C1148      H1159   1.082       .  S
C1149      C1150   1.399       .  A
C1149      H1160   1.084       .  S
C1150      C1151   1.405       .  A
C1150      H1161   1.084       .  S
C1151      C1152   1.415       .  A
C1151      C1156   1.415       .  A
C1152      C1153   1.419       .  A
C1153      C1154   1.409       .  A
C1153      H1162   1.078       .  S
C1154      C1155   1.409       .  A
C1154      H1163   1.083       .  S
C1155      C1156   1.425       .  A
C1156      H1164   1.078       .  S
C1165      C1166   1.399       .  A
C1165      C1170   1.403       .  A
C1166      C1167   1.393       .  A
C1166      H1179   1.084       .  S
C1167      C1168   1.414       .  A
C1167      H1180   1.077       .  S
C1168      C1174   1.429       .  A
C1168      C1169   1.422       .  A
C1169      C1171   1.401       .  A
C1169      C1170   1.409       .  A
C1170      H1181   1.084       .  S
C1171      C1172   1.393       .  A
C1171      H1182   1.084       .  S
C1172      C1173   1.401       .  A
C1172      H1183   1.084       .  S
C1173      C1174   1.420       .  A
C1173      C1178   1.408       .  A
C1174      C1175   1.411       .  A
C1175      C1176   1.393       .  A
C1175      H1184   1.077       .  S
C1176      C1177   1.410       .  A
C1176      H1185   1.082       .  S
C1177      C1178   1.412       .  A
C1178      H1186   1.084       .  S
C1187      C1188   1.399       .  A
C1187      C1192   1.403       .  A
C1188      C1189   1.394       .  A
C1188      H1201   1.083       .  S
C1189      C1190   1.414       .  A
C1189      H1202   1.077       .  S
C1190      C1196   1.429       .  A
C1190      C1191   1.423       .  A
C1191      C1193   1.400       .  A
C1191      C1192   1.408       .  A
C1192      H1203   1.084       .  S
C1193      C1194   1.392       .  A
C1193      H1204   1.084       .  S
C1194      C1195   1.400       .  A
C1194      H1205   1.084       .  S
C1195      C1196   1.422       .  A
C1195      C1200   1.407       .  A
C1196      C1197   1.415       .  A
C1197      C1198   1.395       .  A
C1197      H1206   1.077       .  S
C1198      C1199   1.399       .  A
C1198      H1207   1.083       .  S
C1199      C1200   1.403       .  A
C1200      H1208   1.084       .  S
C1209      C1210   1.400       .  A
C1209      C1214   1.401       .  A
C1210      C1211   1.402       .  A
C1210      H1223   1.083       .  S
C1211      C1212   1.417       .  A
C1211      H1224   1.078       .  S
C1212      C1218   1.432       .  A
C1212      C1213   1.421       .  A
C1213      C1215   1.400       .  A
C1213      C1214   1.403       .  A
C1214      H1225   1.085       .  S
C1215      C1216   1.389       .  A
C1215      H1226   1.084       .  S
C1216      C1217   1.399       .  A
C1216      H1227   1.084       .  S
C1217      C1218   1.421       .  A
C1217      C1222   1.406       .  A
C1218      C1219   1.411       .  A
C1219      C1220   1.398       .  A
C1219      H1228   1.078       .  S
C1220      C1221   1.411       .  A
C1220      H1229   1.083       .  S
C1221      C1222   1.410       .  A
C1222      H1230   1.082       .  S
C1231      C1232   1.399       .  A
C1231      C1236   1.402       .  A
C1232      C1233   1.396       .  A
C1232      H1245   1.083       .  S
C1233      C1234   1.415       .  A
C1233      H1246   1.077       .  S
C1234      C1240   1.430       .  A
C1234      C1235   1.423       .  A
C1235      C1237   1.400       .  A
C1235      C1236   1.407       .  A
C1236      H1247   1.084       .  S
C1237      C1238   1.391       .  A
C1237      H1248   1.084       .  S
C1238      C1239   1.400       .  A
C1238      H1249   1.084       .  S
C1239      C1240   1.423       .  A
C1239      C1244   1.405       .  A
C1240      C1241   1.415       .  A
C1241      C1242   1.396       .  A
C1241      H1250   1.077       .  S
C1242      C1243   1.399       .  A
C1242      H1251   1.084       .  S
C1243      C1244   1.401       .  A
C1244      H1252   1.084       .  S
C1253      C1254   1.400       .  A
C1253      C1258   1.401       .  A
C1254      C1255   1.396       .  A
C1254      H1267   1.083       .  S
C1255      C1256   1.414       .  A
C1255      H1268   1.078       .  S
C1256      C1262   1.429       .  A
C1256      C1257   1.422       .  A
C1257      C1259   1.400       .  A
C1257      C1258   1.406       .  A
C1258      H1269   1.084   1_545  S
C1259      C1260   1.391       .  A
C1259      H1270   1.084   1_545  S
C1260      C1261   1.400       .  A
C1260      H1271   1.084       .  S
C1261      C1262   1.419       .  A
C1261      C1266   1.404       .  A
C1262      C1263   1.413       .  A
C1263      C1264   1.396       .  A
C1263      H1272   1.077       .  S
C1264      C1265   1.409       .  A
C1264      H1273   1.081       .  S
C1265      C1266   1.411       .  A
C1266      H1274   1.084       .  S
C1275      C1276   1.398       .  A
C1275      C1280   1.406       .  A
C1276      C1277   1.392       .  A
C1276      H1289   1.083       .  S
C1277      C1278   1.414       .  A
C1277      H1290   1.076       .  S
C1278      C1284   1.429       .  A
C1278      C1279   1.422       .  A
C1279      C1281   1.402       .  A
C1279      C1280   1.412       .  A
C1280      H1291   1.084       .  S
C1281      C1282   1.396       .  A
C1281      H1292   1.084       .  S
C1282      C1283   1.402       .  A
C1282      H1293   1.084       .  S
C1283      C1284   1.423       .  A
C1283      C1288   1.413       .  A
C1284      C1285   1.412       .  A
C1285      C1286   1.390       .  A
C1285      H1294   1.076       .  S
C1286      C1287   1.399       .  A
C1286      H1295   1.084       .  S
C1287      C1288   1.405       .  A
C1288      H1296   1.084       .  S
C1297      C1298   1.410       .  A
C1297      C1302   1.410       .  A
C1298      C1299   1.394       .  A
C1298      H1311   1.082       .  S
C1299      C1300   1.410       .  A
C1299      H1312   1.078       .  S
C1300      C1306   1.430       .  A
C1300      C1301   1.421       .  A
C1301      C1303   1.400       .  A
C1301      C1302   1.407       .  A
C1302      H1313   1.082       .  S
C1303      C1304   1.390       .  A
C1303      H1314   1.084       .  S
C1304      C1305   1.400       .  A
C1304      H1315   1.084       .  S
C1305      C1306   1.421       .  A
C1305      C1310   1.405       .  A
C1306      C1307   1.416       .  A
C1307      C1308   1.398       .  A
C1307      H1316   1.077       .  S
C1308      C1309   1.399       .  A
C1308      H1317   1.083       .  S
C1309      C1310   1.402       .  A
C1310      H1318   1.084       .  S
C1319      C1320   1.401       .  A
C1319      C1324   1.401       .  A
C1320      C1321   1.398       .  A
C1320      H1333   1.083       .  S
C1321      C1322   1.415       .  A
C1321      H1334   1.077       .  S
C1322      C1328   1.432       .  A
C1322      C1323   1.423       .  A
C1323      C1325   1.399       .  A
C1323      C1324   1.406       .  A
C1324      H1335   1.084       .  S
C1325      C1326   1.390       .  A
C1325      H1336   1.084       .  S
C1326      C1327   1.399       .  A
C1326      H1337   1.084       .  S
C1327      C1328   1.422       .  A
C1327      C1332   1.406       .  A
C1328      C1329   1.416       .  A
C1329      C1330   1.399       .  A
C1329      H1338   1.078       .  S
C1330      C1331   1.400       .  A
C1330      H1339   1.083       .  S
C1331      C1332   1.402       .  A
C1332      H1340   1.085       .  S
C1341      C1342   1.400       .  A
C1341      C1346   1.400       .  A
C1342      C1343   1.401       .  A
C1342      H1355   1.083       .  S
C1343      C1344   1.417       .  A
C1343      H1356   1.078       .  S
C1344      C1350   1.430       .  A
C1344      C1345   1.421       .  A
C1345      C1347   1.399       .  A
C1345      C1346   1.400       .  A
C1346      H1357   1.085       .  S
C1347      C1348   1.388       .  A
C1347      H1358   1.084       .  S
C1348      C1349   1.399       .  A
C1348      H1359   1.084       .  S
C1349      C1350   1.420       .  A
C1349      C1354   1.403       .  A
C1350      C1351   1.411       .  A
C1351      C1352   1.398       .  A
C1351      H1360   1.078       .  S
C1352      C1353   1.411       .  A
C1352      H1361   1.083       .  S
C1353      C1354   1.410       .  A
C1354      H1362   1.081       .  S
C1363      C1364   1.399       .  A
C1363      C1368   1.400       .  A
C1364      C1365   1.395       .  A
C1364      H1377   1.083       .  S
C1365      C1366   1.414       .  A
C1365      H1378   1.078       .  S
C1366      C1372   1.428       .  A
C1366      C1367   1.422       .  A
C1367      C1369   1.399       .  A
C1367      C1368   1.403       .  A
C1368      H1379   1.085       .  S
C1369      C1370   1.389       .  A
C1369      H1380   1.084       .  S
C1370      C1371   1.399       .  A
C1370      H1381   1.084       .  S
C1371      C1372   1.422       .  A
C1371      C1376   1.402       .  A
C1372      C1373   1.415       .  A
C1373      C1374   1.396       .  A
C1373      H1382   1.077       .  S
C1374      C1375   1.399       .  A
C1374      H1383   1.083       .  S
C1375      C1376   1.400       .  A
C1376      H1384   1.084       .  S
C1385      C1386   1.401       .  A
C1385      C1390   1.401       .  A
C1386      C1387   1.398       .  A
C1386      H1399   1.083       .  S
C1387      C1388   1.415       .  A
C1387      H1400   1.077       .  S
C1388      C1394   1.434       .  A
C1388      C1389   1.424       .  A
C1389      C1391   1.399       .  A
C1389      C1390   1.408       .  A
C1390      H1401   1.084       .  S
C1391      C1392   1.391       .  A
C1391      H1402   1.084       .  S
C1392      C1393   1.400       .  A
C1392      H1403   1.084       .  S
C1393      C1394   1.422       .  A
C1393      C1398   1.408       .  A
C1394      C1395   1.416       .  A
C1395      C1396   1.400       .  A
C1395      H1404   1.078       .  S
C1396      C1397   1.401       .  A
C1396      H1405   1.083       .  S
C1397      C1398   1.402       .  A
C1398      H1406   1.084       .  S
C1407      C1408   1.399       .  A
C1407      C1412   1.404       .  A
C1408      C1409   1.397       .  A
C1408      H1421   1.083   1_545  S
C1409      C1410   1.415       .  A
C1409      H1422   1.077       .  S
C1410      C1416   1.431       .  A
C1410      C1411   1.422       .  A
C1411      C1413   1.401       .  A
C1411      C1412   1.409       .  A
C1412      H1423   1.084       .  S
C1413      C1414   1.393       .  A
C1413      H1424   1.084       .  S
C1414      C1415   1.401       .  A
C1414      H1425   1.084       .  S
C1415      C1416   1.421       .  A
C1415      C1420   1.409       .  A
C1416      C1417   1.411       .  A
C1417      C1418   1.394       .  A
C1417      H1426   1.077       .  S
C1418      C1419   1.410       .  A
C1418      H1427   1.082       .  S
C1419      C1420   1.411       .  A
C1420      H1428   1.083       .  S
C1429      C1430   1.399       .  A
C1429      C1434   1.401       .  A
C1430      C1431   1.393       .  A
C1430      H1443   1.083       .  S
C1431      C1432   1.414       .  A
C1431      H1444   1.077       .  S
C1432      C1438   1.428       .  A
C1432      C1433   1.423       .  A
C1433      C1435   1.400       .  A
C1433      C1434   1.405       .  A
C1434      H1445   1.084       .  S
C1435      C1436   1.390       .  A
C1435      H1446   1.084       .  S
C1436      C1437   1.399       .  A
C1436      H1447   1.084       .  S
C1437      C1438   1.422       .  A
C1437      C1442   1.404       .  A
C1438      C1439   1.415       .  A
C1439      C1440   1.394       .  A
C1439      H1448   1.077       .  S
C1440      C1441   1.399       .  A
C1440      H1449   1.083       .  S
C1441      C1442   1.401       .  A
C1442      H1450   1.085       .  S
C1451      C1452   1.400   1_565  A
C1451      C1456   1.399       .  A
C1452      C1453   1.398       .  A
C1452      H1465   1.083       .  S
C1453      C1454   1.416   1_545  A
C1453      H1466   1.077       .  S
C1454      C1460   1.431       .  A
C1454      C1455   1.423       .  A
C1455      C1457   1.398       .  A
C1455      C1456   1.402       .  A
C1456      H1467   1.085       .  S
C1457      C1458   1.388       .  A
C1457      H1468   1.084       .  S
C1458      C1459   1.399       .  A
C1458      H1469   1.084       .  S
C1459      C1460   1.422       .  A
C1459      C1464   1.403       .  A
C1460      C1461   1.416   1_565  A
C1461      C1462   1.399       .  A
C1461      H1470   1.077       .  S
C1462      C1463   1.400   1_545  A
C1462      H1471   1.083       .  S
C1463      C1464   1.401       .  A
C1464      H1472   1.085       .  S
C1473      C1474   1.398       .  A
C1473      C1478   1.400       .  A
C1474      C1475   1.391       .  A
C1474      H1487   1.083       .  S
C1475      C1476   1.414       .  A
C1475      H1488   1.076       .  S
C1476      C1482   1.426       .  A
C1476      C1477   1.423       .  A
C1477      C1479   1.399       .  A
C1477      C1478   1.404       .  A
C1478      H1489   1.085       .  S
C1479      C1480   1.391       .  A
C1479      H1490   1.084       .  S
C1480      C1481   1.400       .  A
C1480      H1491   1.084       .  S
C1481      C1482   1.422       .  A
C1481      C1486   1.405       .  A
C1482      C1483   1.414       .  A
C1483      C1484   1.391       .  A
C1483      H1492   1.076       .  S
C1484      C1485   1.398       .  A
C1484      H1493   1.083       .  S
C1485      C1486   1.401       .  A
C1486      H1494   1.084       .  S
C1495      C1496   1.400       .  A
C1495      C1500   1.401       .  A
C1496      C1497   1.397       .  A
C1496      H1509   1.083       .  S
C1497      C1498   1.415       .  A
C1497      H1510   1.077       .  S
C1498      C1504   1.432       .  A
C1498      C1499   1.424       .  A
C1499      C1501   1.399       .  A
C1499      C1500   1.405       .  A
C1500      H1511   1.085       .  S
C1501      C1502   1.389       .  A
C1501      H1512   1.084       .  S
C1502      C1503   1.400       .  A
C1502      H1513   1.084       .  S
C1503      C1504   1.421       .  A
C1503      C1508   1.403       .  A
C1504      C1505   1.417       .  A
C1505      C1506   1.400       .  A
C1505      H1514   1.077       .  S
C1506      C1507   1.399       .  A
C1506      H1515   1.083       .  S
C1507      C1508   1.402       .  A
C1508      H1516   1.085       .  S
C1517      C1518   1.401       .  A
C1517      C1522   1.399       .  A
C1518      C1519   1.399       .  A
C1518      H1531   1.083       .  S
C1519      C1520   1.416       .  A
C1519      H1532   1.077       .  S
C1520      C1526   1.431       .  A
C1520      C1521   1.423       .  A
C1521      C1523   1.398       .  A
C1521      C1522   1.403       .  A
C1522      H1533   1.085       .  S
C1523      C1524   1.387       .  A
C1523      H1534   1.084       .  S
C1524      C1525   1.399       .  A
C1524      H1535   1.084       .  S
C1525      C1526   1.422       .  A
C1525      C1530   1.402       .  A
C1526      C1527   1.416       .  A
C1527      C1528   1.399       .  A
C1527      H1536   1.077       .  S
C1528      C1529   1.400       .  A
C1528      H1537   1.083       .  S
C1529      C1530   1.400       .  A
C1530      H1538   1.085       .  S
C1539      C1540   1.399   1_655  A
C1539      C1544   1.401       .  A
C1540      C1541   1.394       .  A
C1540      H1553   1.084       .  S
C1541      C1542   1.415   1_455  A
C1541      H1554   1.077       .  S
C1542      C1548   1.429       .  A
C1542      C1543   1.422       .  A
C1543      C1545   1.400       .  A
C1543      C1544   1.406       .  A
C1544      H1555   1.084       .  S
C1545      C1546   1.391       .  A
C1545      H1556   1.084       .  S
C1546      C1547   1.400       .  A
C1546      H1557   1.084       .  S
C1547      C1548   1.423       .  A
C1547      C1552   1.408       .  A
C1548      C1549   1.414   1_655  A
C1549      C1550   1.394       .  A
C1549      H1558   1.077       .  S
C1550      C1551   1.400   1_455  A
C1550      H1559   1.083       .  S
C1551      C1552   1.402       .  A
C1552      H1560   1.084       .  S
C1561      C1562   1.417   1_545  A
C1561      C1566   1.417       .  A
C1562      C1563   1.400       .  A
C1562      H1575   1.071       .  S
C1563      C1564   1.410   1_565  A
C1563      H1576   1.079       .  S
C1564      C1570   1.430       .  A
C1564      C1565   1.414       .  A
C1565      C1567   1.400       .  A
C1565      C1566   1.399       .  A
C1566      H1577   1.084       .  S
C1567      C1568   1.387       .  A
C1567      H1578   1.085       .  S
C1568      C1569   1.397       .  A
C1568      H1579   1.084       .  S
C1569      C1570   1.424       .  A
C1569      C1574   1.404       .  A
C1570      C1571   1.413   1_545  A
C1571      C1572   1.396       .  A
C1571      H1580   1.078       .  S
C1572      C1573   1.402   1_565  A
C1572      H1581   1.083       .  S
C1573      C1574   1.398       .  A
C1574      H1582   1.085       .  S
C1583      C1584   1.416       .  A
C1583      C1588   1.411       .  A
C1584      C1585   1.401       .  A
C1584      H1597   1.081       .  S
C1585      C1586   1.410       .  A
C1585      H1598   1.078       .  S
C1586      C1592   1.440       .  A
C1586      C1587   1.425       .  A
C1587      C1589   1.399       .  A
C1587      C1588   1.416       .  A
C1588      H1599   1.085       .  S
C1589      C1590   1.392       .  A
C1589      H1600   1.084       .  S
C1590      C1591   1.402       .  A
C1590      H1601   1.084       .  S
C1591      C1592   1.417       .  A
C1591      C1596   1.406       .  A
C1592      C1593   1.421       .  A
C1593      C1594   1.411   1_565  A
C1593      H1602   1.078   1_565  S
C1594      C1595   1.407   1_545  A
C1594      H1603   1.081       .  S
C1595      C1596   1.418       .  A
C1596      H1604   1.084       .  S
C1605      C1606   1.400       .  A
C1605      C1610   1.402       .  A
C1606      C1607   1.393       .  A
C1606      H1619   1.083       .  S
C1607      C1608   1.412       .  A
C1607      H1620   1.078       .  S
C1608      C1614   1.425       .  A
C1608      C1609   1.421       .  A
C1609      C1611   1.400       .  A
C1609      C1610   1.406       .  A
C1610      H1621   1.084       .  S
C1611      C1612   1.392       .  A
C1611      H1622   1.084       .  S
C1612      C1613   1.400       .  A
C1612      H1623   1.084       .  S
C1613      C1614   1.418       .  A
C1613      C1618   1.404       .  A
C1614      C1615   1.409       .  A
C1615      C1616   1.392       .  A
C1615      H1624   1.078       .  S
C1616      C1617   1.412       .  A
C1616      H1625   1.076       .  S
C1617      C1618   1.412       .  A
C1618      H1626   1.085       .  S
C1627      C1628   1.412       .  A
C1627      C1632   1.418       .  A
C1628      C1629   1.417       .  A
C1628      H1641   1.082       .  S
C1629      C1630   1.418       .  A
C1629      H1642   1.080       .  S
C1630      C1636   1.445       .  A
C1630      C1631   1.418       .  A
C1631      C1633   1.400       .  A
C1631      C1632   1.407       .  A
C1632      H1643   1.082       .  S
C1633      C1634   1.389       .  A
C1633      H1644   1.083       .  S
C1634      C1635   1.400       .  A
C1634      H1645   1.087       .  S
C1635      C1636   1.418       .  A
C1635      C1640   1.408       .  A
C1636      C1637   1.414       .  A
C1637      C1638   1.415       .  A
C1637      H1646   1.083       .  S
C1638      C1639   1.422       .  A
C1638      H1647   1.078       .  S
C1639      C1640   1.414       .  A
C1640      H1648   1.082       .  S
C1649      C1650   1.413       .  A
C1649      C1654   1.419       .  A
C1650      C1651   1.390       .  A
C1650      H1663   1.081       .  S
C1651      C1652   1.406       .  A
C1651      H1664   1.081       .  S
C1652      C1658   1.423       .  A
C1652      C1653   1.415       .  A
C1653      C1655   1.405       .  A
C1653      C1654   1.421       .  A
C1654      H1665   1.083       .  S
C1655      C1656   1.406       .  A
C1655      H1666   1.083       .  S
C1656      C1657   1.406       .  A
C1656      H1667   1.083       .  S
C1657      C1658   1.415       .  A
C1657      C1662   1.422       .  A
C1658      C1659   1.400       .  A
C1659      C1660   1.388       .  A
C1659      H1668   1.081       .  S
C1660      C1661   1.422       .  A
C1660      H1669   1.075       .  S
C1661      C1662   1.422       .  A
C1662      H1670   1.083       .  S
C1671      C1672   1.412       .  A
C1671      C1676   1.411       .  A
C1672      C1673   1.404       .  A
C1672      H1685   1.083       .  S
C1673      C1674   1.415       .  A
C1673      H1686   1.078       .  S
C1674      C1680   1.435       .  A
C1674      C1675   1.419       .  A
C1675      C1677   1.399       .  A
C1675      C1676   1.403       .  A
C1676      H1687   1.080       .  S
C1677      C1678   1.387       .  A
C1677      H1688   1.084       .  S
C1678      C1679   1.399       .  A
C1678      H1689   1.084       .  S
C1679      C1680   1.420       .  A
C1679      C1684   1.404       .  A
C1680      C1681   1.413       .  A
C1681      C1682   1.402       .  A
C1681      H1690   1.078       .  S
C1682      C1683   1.412       .  A
C1682      H1691   1.083       .  S
C1683      C1684   1.411       .  A
C1684      H1692   1.079       .  S
C1693      C1694   1.399       .  A
C1693      C1698   1.401       .  A
C1694      C1695   1.400       .  A
C1694      H1707   1.083       .  S
C1695      C1696   1.416       .  A
C1695      H1708   1.078       .  S
C1696      C1702   1.430       .  A
C1696      C1697   1.422       .  A
C1697      C1699   1.400   1_655  A
C1697      C1698   1.403       .  A
C1698      H1709   1.085   1_655  S
C1699      C1700   1.389       .  A
C1699      H1710   1.084       .  S
C1700      C1701   1.399   1_455  A
C1700      H1711   1.084       .  S
C1701      C1702   1.420       .  A
C1701      C1706   1.404   1_655  A
C1702      C1703   1.411       .  A
C1703      C1704   1.397       .  A
C1703      H1712   1.078       .  S
C1704      C1705   1.411       .  A
C1704      H1713   1.083       .  S
C1705      C1706   1.411   1_655  A
C1706      H1714   1.081       .  S
C1715      C1716   1.410       .  A
C1715      C1720   1.416       .  A
C1716      C1717   1.396       .  A
C1716      H1729   1.083       .  S
C1717      C1718   1.413       .  A
C1717      H1730   1.077       .  S
C1718      C1724   1.435       .  A
C1718      C1719   1.418       .  A
C1719      C1721   1.403       .  A
C1719      C1720   1.414       .  A
C1720      H1731   1.080       .  S
C1721      C1722   1.396       .  A
C1721      H1732   1.084       .  S
C1722      C1723   1.402       .  A
C1722      H1733   1.083       .  S
C1723      C1724   1.422       .  A
C1723      C1728   1.420       .  A
C1724      C1725   1.406       .  A
C1725      C1726   1.391       .  A
C1725      H1734   1.077       .  S
C1726      C1727   1.418       .  A
C1726      H1735   1.082       .  S
C1727      C1728   1.414       .  A
C1728      H1736   1.075       .  S
C1737      C1738   1.422       .  A
C1737      C1742   1.411       .  A
C1738      C1739   1.400       .  A
C1738      H1751   1.076   1_455  S
C1739      C1740   1.406       .  A
C1739      H1752   1.078       .  S
C1740      C1746   1.442       .  A
C1740      C1741   1.425       .  A
C1741      C1743   1.399       .  A
C1741      C1742   1.418       .  A
C1742      H1753   1.084       .  S
C1743      C1744   1.392       .  A
C1743      H1754   1.084       .  S
C1744      C1745   1.402       .  A
C1744      H1755   1.084       .  S
C1745      C1746   1.415       .  A
C1745      C1750   1.404       .  A
C1746      C1747   1.424       .  A
C1747      C1748   1.413       .  A
C1747      H1756   1.078       .  S
C1748      C1749   1.406       .  A
C1748      H1757   1.081       .  S
C1749      C1750   1.417       .  A
C1750      H1758   1.084       .  S
C1759      C1760   1.412       .  A
C1759      C1764   1.419       .  A
C1760      C1761   1.411       .  A
C1760      H1773   1.083       .  S
C1761      C1762   1.417       .  A
C1761      H1774   1.079       .  S
C1762      C1768   1.445       .  A
C1762      C1763   1.419       .  A
C1763      C1765   1.402       .  A
C1763      C1764   1.413       .  A
C1764      H1775   1.079       .  S
C1765      C1766   1.393       .  A
C1765      H1776   1.084       .  S
C1766      C1767   1.401       .  A
C1766      H1777   1.084       .  S
C1767      C1768   1.422       .  A
C1767      C1772   1.416       .  A
C1768      C1769   1.414       .  A
C1769      C1770   1.408       .  A
C1769      H1778   1.078       .  S
C1770      C1771   1.415       .  A
C1770      H1779   1.082       .  S
C1771      C1772   1.414       .  A
C1772      H1780   1.078       .  S
C1781      C1782   1.419       .  A
C1781      C1786   1.413       .  A
C1782      C1783   1.412       .  A
C1782      H1795   1.083       .  S
C1783      C1784   1.415       .  A
C1783      H1796   1.079       .  S
C1784      C1790   1.446       .  A
C1784      C1785   1.421       .  A
C1785      C1787   1.398       .  A
C1785      C1786   1.407       .  A
C1786      H1797   1.075       .  S
C1787      C1788   1.385       .  A
C1787      H1798   1.084       .  S
C1788      C1789   1.399       .  A
C1788      H1799   1.084       .  S
C1789      C1790   1.418       .  A
C1789      C1794   1.404       .  A
C1790      C1791   1.418       .  A
C1791      C1792   1.415       .  A
C1791      H1800   1.079       .  S
C1792      C1793   1.417       .  A
C1792      H1801   1.083       .  S
C1793      C1794   1.415       .  A
C1794      H1802   1.075       .  S
C1803      C1804   1.414       .  A
C1803      C1808   1.417       .  A
C1804      C1805   1.395       .  A
C1804      H1817   1.073       .  S
C1805      C1806   1.407       .  A
C1805      H1818   1.077       .  S
C1806      C1812   1.432       .  A
C1806      C1807   1.418       .  A
C1807      C1809   1.401   1_655  A
C1807      C1808   1.409       .  A
C1808      H1819   1.074   1_655  S
C1809      C1810   1.390       .  A
C1809      H1820   1.084       .  S
C1810      C1811   1.399   1_455  A
C1810      H1821   1.084       .  S
C1811      C1812   1.422       .  A
C1811      C1816   1.405       .  A
C1812      C1813   1.417       .  A
C1813      C1814   1.398       .  A
C1813      H1822   1.077       .  S
C1814      C1815   1.399       .  A
C1814      H1823   1.083       .  S
C1815      C1816   1.402       .  A
C1816      H1824   1.085       .  S
C1825      C1826   1.417       .  A
C1825      C1830   1.420       .  A
C1826      C1827   1.406       .  A
C1826      H1839   1.083       .  S
C1827      C1828   1.413       .  A
C1827      H1840   1.078       .  S
C1828      C1834   1.440       .  A
C1828      C1829   1.418       .  A
C1829      C1831   1.401       .  A
C1829      C1830   1.409       .  A
C1830      H1841   1.080       .  S
C1831      C1832   1.390       .  A
C1831      H1842   1.084       .  S
C1832      C1833   1.400       .  A
C1832      H1843   1.084       .  S
C1833      C1834   1.419       .  A
C1833      C1838   1.409       .  A
C1834      C1835   1.414       .  A
C1835      C1836   1.406       .  A
C1835      H1844   1.078       .  S
C1836      C1837   1.415       .  A
C1836      H1845   1.083       .  S
C1837      C1838   1.418       .  A
C1838      H1846   1.081       .  S
C1847      C1848   1.419       .  A
C1847      C1852   1.413       .  A
C1848      C1849   1.400       .  A
C1848      H1861   1.080       .  S
C1849      C1850   1.407       .  A
C1849      H1862   1.079       .  S
C1850      C1856   1.441       .  A
C1850      C1851   1.425       .  A
C1851      C1853   1.400       .  A
C1851      C1852   1.421       .  A
C1852      H1863   1.084       .  S
C1853      C1854   1.395       .  A
C1853      H1864   1.084       .  S
C1854      C1855   1.404       .  A
C1854      H1865   1.084       .  S
C1855      C1856   1.416       .  A
C1855      C1860   1.410       .  A
C1856      C1857   1.420   1_455  A
C1857      C1858   1.410       .  A
C1857      H1866   1.078       .  S
C1858      C1859   1.409       .  A
C1858      H1867   1.081       .  S
C1859      C1860   1.420   1_655  A
C1860      H1868   1.083       .  S
C1869      C1870   1.414       .  A
C1869      C1874   1.420       .  A
C1870      C1871   1.409       .  A
C1870      H1883   1.082       .  S
C1871      C1872   1.416       .  A
C1871      H1884   1.079       .  S
C1872      C1878   1.445       .  A
C1872      C1873   1.418       .  A
C1873      C1875   1.402       .  A
C1873      C1874   1.415       .  A
C1874      H1885   1.078       .  S
C1875      C1876   1.394       .  A
C1875      H1886   1.084       .  S
C1876      C1877   1.401       .  A
C1876      H1887   1.084       .  S
C1877      C1878   1.423       .  A
C1877      C1882   1.418       .  A
C1878      C1879   1.413       .  A
C1879      C1880   1.407       .  A
C1879      H1888   1.078       .  S
C1880      C1881   1.415       .  A
C1880      H1889   1.083       .  S
C1881      C1882   1.414       .  A
C1882      H1890   1.079       .  S
C1891      C1892   1.414       .  A
C1891      C1896   1.413   1_545  A
C1892      C1893   1.401       .  A
C1892      H1905   1.079       .  S
C1893      C1894   1.413       .  A
C1893      H1906   1.079       .  S
C1894      C1900   1.428       .  A
C1894      C1895   1.417   1_545  A
C1895      C1897   1.397       .  A
C1895      C1896   1.394       .  A
C1896      H1907   1.085       .  S
C1897      C1898   1.385       .  A
C1897      H1908   1.084       .  S
C1898      C1899   1.398       .  A
C1898      H1909   1.084       .  S
C1899      C1900   1.421   1_565  A
C1899      C1904   1.397       .  A
C1900      C1901   1.416       .  A
C1901      C1902   1.401       .  A
C1901      H1910   1.078       .  S
C1902      C1903   1.400       .  A
C1902      H1911   1.083       .  S
C1903      C1904   1.399   1_545  A
C1904      H1912   1.085       .  S
C1913      C1914   1.412       .  A
C1913      C1918   1.411       .  A
C1914      C1915   1.419       .  A
C1914      H1927   1.081       .  S
C1915      C1916   1.421       .  A
C1915      H1928   1.079       .  S
C1916      C1922   1.449       .  A
C1916      C1917   1.421       .  A
C1917      C1919   1.398       .  A
C1917      C1918   1.403       .  A
C1918      H1929   1.085       .  S
C1919      C1920   1.385       .  A
C1919      H1930   1.084       .  S
C1920      C1921   1.398       .  A
C1920      H1931   1.084       .  S
C1921      C1922   1.422       .  A
C1921      C1926   1.404       .  A
C1922      C1923   1.421       .  A
C1923      C1924   1.419       .  A
C1923      H1932   1.079       .  S
C1924      C1925   1.411       .  A
C1924      H1933   1.082       .  S
C1925      C1926   1.411       .  A
C1926      H1934   1.084       .  S
C1935      C1936   1.411       .  A
C1935      C1940   1.429   1_565  A
C1936      C1937   1.405       .  A
C1936      H1949   1.071       .  S
C1937      C1938   1.416       .  A
C1937      H1950   1.077       .  S
C1938      C1944   1.439       .  A
C1938      C1939   1.413       .  A
C1939      C1941   1.405       .  A
C1939      C1940   1.415   1_565  A
C1940      H1951   1.083       .  S
C1941      C1942   1.399       .  A
C1941      H1952   1.083   1_565  S
C1942      C1943   1.402       .  A
C1942      H1953   1.084       .  S
C1943      C1944   1.426       .  A
C1943      C1948   1.427       .  A
C1944      C1945   1.405       .  A
C1945      C1946   1.392       .  A
C1945      H1954   1.077       .  S
C1946      C1947   1.417       .  A
C1946      H1955   1.081       .  S
C1947      C1948   1.413       .  A
C1948      H1956   1.081       .  S
C1957      C1958   1.412       .  A
C1957      C1962   1.412       .  A
C1958      C1959   1.418       .  A
C1958      H1971   1.079       .  S
C1959      C1960   1.420       .  A
C1959      H1972   1.079       .  S
C1960      C1966   1.449       .  A
C1960      C1961   1.421       .  A
C1961      C1963   1.398       .  A
C1961      C1962   1.403       .  A
C1962      H1973   1.084       .  S
C1963      C1964   1.385       .  A
C1963      H1974   1.084       .  S
C1964      C1965   1.398       .  A
C1964      H1975   1.084       .  S
C1965      C1966   1.422       .  A
C1965      C1970   1.405       .  A
C1966      C1967   1.420       .  A
C1967      C1968   1.418       .  A
C1967      H1976   1.079       .  S
C1968      C1969   1.413       .  A
C1968      H1977   1.081       .  S
C1969      C1970   1.411       .  A
C1970      H1978   1.084       .  S
C1979      C1980   1.418       .  A
C1979      C1984   1.415       .  A
C1980      C1981   1.400       .  A
C1980      H1993   1.078       .  S
C1981      C1982   1.410       .  A
C1981      H1994   1.078       .  S
C1982      C1988   1.438       .  A
C1982      C1983   1.419       .  A
C1983      C1985   1.401       .  A
C1983      C1984   1.415       .  A
C1984      H1995   1.085       .  S
C1985      C1986   1.396       .  A
C1985      H1996   1.084       .  S
C1986      C1987   1.402       .  A
C1986      H1997   1.084       .  S
C1987      C1988   1.419       .  A
C1987      C1992   1.414       .  A
C1988      C1989   1.412       .  A
C1989      C1990   1.401       .  A
C1989      H1998   1.078       .  S
C1990      C1991   1.414       .  A
C1990      H1999   1.078       .  S
C1991      C1992   1.416       .  A
C1992      H2000   1.084       .  S
C2001      C2002   1.411       .  A
C2001      C2006   1.414       .  A
C2002      C2003   1.406       .  A
C2002      H2015   1.083       .  S
C2003      C2004   1.416       .  A
C2003      H2016   1.078       .  S
C2004      C2010   1.437       .  A
C2004      C2005   1.419       .  A
C2005      C2007   1.399       .  A
C2005      C2006   1.401       .  A
C2006      H2017   1.080       .  S
C2007      C2008   1.386       .  A
C2007      H2018   1.084       .  S
C2008      C2009   1.397       .  A
C2008      H2019   1.084       .  S
C2009      C2010   1.424       .  A
C2009      C2014   1.404       .  A
C2010      C2011   1.417       .  A
C2011      C2012   1.405       .  A
C2011      H2020   1.078       .  S
C2012      C2013   1.403       .  A
C2012      H2021   1.083       .  S
C2013      C2014   1.399       .  A
C2014      H2022   1.085       .  S
C2023      C2024   1.414       .  A
C2023      C2028   1.420       .  A
C2024      C2025   1.412       .  A
C2024      H2037   1.083       .  S
C2025      C2026   1.417       .  A
C2025      H2038   1.079       .  S
C2026      C2032   1.447       .  A
C2026      C2027   1.419       .  A
C2027      C2029   1.402       .  A
C2027      C2028   1.413       .  A
C2028      H2039   1.079       .  S
C2029      C2030   1.392       .  A
C2029      H2040   1.084       .  S
C2030      C2031   1.401       .  A
C2030      H2041   1.084       .  S
C2031      C2032   1.419       .  A
C2031      C2036   1.415       .  A
C2032      C2033   1.413       .  A
C2033      C2034   1.411       .  A
C2033      H2042   1.079       .  S
C2034      C2035   1.418       .  A
C2034      H2043   1.078       .  S
C2035      C2036   1.419       .  A
C2036      H2044   1.074       .  S
C2045      C2046   1.413       .  A
C2045      C2050   1.414       .  A
C2046      C2047   1.404       .  A
C2046      H2059   1.083       .  S
C2047      C2048   1.412       .  A
C2047      H2060   1.079       .  S
C2048      C2054   1.438       .  A
C2048      C2049   1.421       .  A
C2049      C2051   1.400       .  A
C2049      C2050   1.409       .  A
C2050      H2061   1.078       .  S
C2051      C2052   1.389       .  A
C2051      H2062   1.084       .  S
C2052      C2053   1.400       .  A
C2052      H2063   1.084       .  S
C2053      C2054   1.416       .  A
C2053      C2058   1.406       .  A
C2054      C2055   1.413       .  A
C2055      C2056   1.407       .  A
C2055      H2064   1.079       .  S
C2056      C2057   1.413       .  A
C2056      H2065   1.080       .  S
C2057      C2058   1.421       .  A
C2058      H2066   1.078       .  S
C2067      C2068   1.413       .  A
C2067      C2072   1.415       .  A
C2068      C2069   1.420       .  A
C2068      H2081   1.079       .  S
C2069      C2070   1.421       .  A
C2069      H2082   1.080       .  S
C2070      C2076   1.445       .  A
C2070      C2071   1.417       .  A
C2071      C2073   1.398       .  A
C2071      C2072   1.400       .  A
C2072      H2083   1.083       .  S
C2073      C2074   1.385       .  A
C2073      H2084   1.085       .  S
C2074      C2075   1.399       .  A
C2074      H2085   1.083       .  S
C2075      C2076   1.418       .  A
C2075      C2080   1.407       .  A
C2076      C2077   1.413       .  A
C2077      C2078   1.415       .  A
C2077      H2086   1.079       .  S
C2078      C2079   1.423       .  A
C2078      H2087   1.083       .  S
C2079      C2080   1.415       .  A
C2080      H2088   1.065       .  S
C2089      C2090   1.399       .  A
C2089      C2094   1.400       .  A
C2090      C2091   1.396       .  A
C2090      H2103   1.084       .  S
C2091      C2092   1.414       .  A
C2091      H2104   1.078       .  S
C2092      C2098   1.428   1_556  A
C2092      C2093   1.422       .  A
C2093      C2095   1.399       .  A
C2093      C2094   1.405       .  A
C2094      H2105   1.085       .  S
C2095      C2096   1.391   1_556  A
C2095      H2106   1.084       .  S
C2096      C2097   1.401       .  A
C2096      H2107   1.084       .  S
C2097      C2098   1.422       .  A
C2097      C2102   1.405       .  A
C2098      C2099   1.415       .  A
C2099      C2100   1.397       .  A
C2099      H2108   1.078       .  S
C2100      C2101   1.399       .  A
C2100      H2109   1.083       .  S
C2101      C2102   1.402       .  A
C2102      H2110   1.085       .  S
C2111      C2112   1.401       .  A
C2111      C2116   1.400       .  A
C2112      C2113   1.403       .  A
C2112      H2125   1.083       .  S
C2113      C2114   1.418       .  A
C2113      H2126   1.078       .  S
C2114      C2120   1.433       .  A
C2114      C2115   1.422       .  A
C2115      C2117   1.398       .  A
C2115      C2116   1.400       .  A
C2116      H2127   1.085       .  S
C2117      C2118   1.386       .  A
C2117      H2128   1.084       .  S
C2118      C2119   1.397       .  A
C2118      H2129   1.084       .  S
C2119      C2120   1.420       .  A
C2119      C2124   1.400       .  A
C2120      C2121   1.412       .  A
C2121      C2122   1.401       .  A
C2121      H2130   1.078       .  S
C2122      C2123   1.415       .  A
C2122      H2131   1.079       .  S
C2123      C2124   1.410       .  A
C2124      H2132   1.085       .  S
C2133      C2134   1.401       .  A
C2133      C2138   1.402   1_565  A
C2134      C2135   1.398       .  A
C2134      H2147   1.083       .  S
C2135      C2136   1.414       .  A
C2135      H2148   1.077       .  S
C2136      C2142   1.433   1_556  A
C2136      C2137   1.424   1_565  A
C2137      C2139   1.400       .  A
C2137      C2138   1.409       .  A
C2138      H2149   1.084       .  S
C2139      C2140   1.391   1_556  A
C2139      H2150   1.084       .  S
C2140      C2141   1.400       .  A
C2140      H2151   1.084       .  S
C2141      C2142   1.422   1_545  A
C2141      C2146   1.406       .  A
C2142      C2143   1.417       .  A
C2143      C2144   1.400       .  A
C2143      H2152   1.077       .  S
C2144      C2145   1.400       .  A
C2144      H2153   1.083       .  S
C2145      C2146   1.403   1_565  A
C2146      H2154   1.085       .  S
C2155      C2156   1.400       .  A
C2155      C2160   1.399       .  A
C2156      C2157   1.397       .  A
C2156      H2169   1.083       .  S
C2157      C2158   1.415       .  A
C2157      H2170   1.077       .  S
C2158      C2164   1.430       .  A
C2158      C2159   1.423       .  A
C2159      C2161   1.398       .  A
C2159      C2160   1.402       .  A
C2160      H2171   1.085       .  S
C2161      C2162   1.387       .  A
C2161      H2172   1.084       .  S
C2162      C2163   1.399       .  A
C2162      H2173   1.084       .  S
C2163      C2164   1.422       .  A
C2163      C2168   1.401       .  A
C2164      C2165   1.417       .  A
C2165      C2166   1.399       .  A
C2165      H2174   1.077       .  S
C2166      C2167   1.399       .  A
C2166      H2175   1.083       .  S
C2167      C2168   1.401       .  A
C2168      H2176   1.085       .  S
C2177      C2178   1.398       .  A
C2177      C2182   1.405       .  A
C2178      C2179   1.391       .  A
C2178      H2191   1.084   1_565  S
C2179      C2180   1.414       .  A
C2179      H2192   1.076       .  S
C2180      C2186   1.428       .  A
C2180      C2181   1.422       .  A
C2181      C2183   1.403       .  A
C2181      C2182   1.413       .  A
C2182      H2193   1.084       .  S
C2183      C2184   1.397       .  A
C2183      H2194   1.083       .  S
C2184      C2185   1.402       .  A
C2184      H2195   1.084       .  S
C2185      C2186   1.420       .  A
C2185      C2190   1.414       .  A
C2186      C2187   1.406       .  A
C2187      C2188   1.388       .  A
C2187      H2196   1.077       .  S
C2188      C2189   1.415       .  A
C2188      H2197   1.080       .  S
C2189      C2190   1.414       .  A
C2190      H2198   1.084       .  S
C2199      C2200   1.401   1_565  A
C2199      C2204   1.402       .  A
C2200      C2201   1.400       .  A
C2200      H2213   1.083       .  S
C2201      C2202   1.416       .  A
C2201      H2214   1.077       .  S
C2202      C2208   1.433   1_556  A
C2202      C2203   1.422   1_545  A
C2203      C2205   1.399       .  A
C2203      C2204   1.405       .  A
C2204      H2215   1.085       .  S
C2205      C2206   1.389   1_556  A
C2205      H2216   1.084       .  S
C2206      C2207   1.399       .  A
C2206      H2217   1.084       .  S
C2207      C2208   1.423   1_565  A
C2207      C2212   1.405       .  A
C2208      C2209   1.416       .  A
C2209      C2210   1.399       .  A
C2209      H2218   1.077       .  S
C2210      C2211   1.400       .  A
C2210      H2219   1.083       .  S
C2211      C2212   1.401   1_545  A
C2212      H2220   1.085       .  S
C2221      C2222   1.411       .  A
C2221      C2226   1.412       .  A
C2222      C2223   1.400       .  A
C2222      H2235   1.080       .  S
C2223      C2224   1.413       .  A
C2223      H2236   1.078       .  S
C2224      C2230   1.433       .  A
C2224      C2225   1.420       .  A
C2225      C2227   1.399       .  A
C2225      C2226   1.404       .  A
C2226      H2237   1.085       .  S
C2227      C2228   1.389       .  A
C2227      H2238   1.084       .  S
C2228      C2229   1.400       .  A
C2228      H2239   1.084       .  S
C2229      C2230   1.421       .  A
C2229      C2234   1.404       .  A
C2230      C2231   1.418       .  A
C2231      C2232   1.402       .  A
C2231      H2240   1.077       .  S
C2232      C2233   1.399       .  A
C2232      H2241   1.083       .  S
C2233      C2234   1.404       .  A
C2234      H2242   1.085       .  S
C2243      C2244   1.397       .  A
C2243      C2248   1.403       .  A
C2244      C2245   1.394       .  A
C2244      H2257   1.084       .  S
C2245      C2246   1.415       .  A
C2245      H2258   1.076       .  S
C2246      C2252   1.429   1_556  A
C2246      C2247   1.423       .  A
C2247      C2249   1.401       .  A
C2247      C2248   1.407       .  A
C2248      H2259   1.084       .  S
C2249      C2250   1.392   1_556  A
C2249      H2260   1.084       .  S
C2250      C2251   1.400       .  A
C2250      H2261   1.084       .  S
C2251      C2252   1.423       .  A
C2251      C2256   1.407       .  A
C2252      C2253   1.414       .  A
C2253      C2254   1.393       .  A
C2253      H2262   1.077       .  S
C2254      C2255   1.399       .  A
C2254      H2263   1.083       .  S
C2255      C2256   1.402       .  A
C2256      H2264   1.085       .  S
C2265      C2266   1.400       .  A
C2265      C2270   1.399       .  A
C2266      C2267   1.394       .  A
C2266      H2279   1.083       .  S
C2267      C2268   1.414       .  A
C2267      H2280   1.077       .  S
C2268      C2274   1.428       .  A
C2268      C2269   1.423       .  A
C2269      C2271   1.399       .  A
C2269      C2270   1.403       .  A
C2270      H2281   1.084       .  S
C2271      C2272   1.389       .  A
C2271      H2282   1.084       .  S
C2272      C2273   1.399       .  A
C2272      H2283   1.084       .  S
C2273      C2274   1.423       .  A
C2273      C2278   1.403       .  A
C2274      C2275   1.415       .  A
C2275      C2276   1.394       .  A
C2275      H2284   1.077       .  S
C2276      C2277   1.399       .  A
C2276      H2285   1.083       .  S
C2277      C2278   1.399       .  A
C2278      H2286   1.085       .  S
C2287      C2288   1.400       .  A
C2287      C2292   1.400       .  A
C2288      C2289   1.404       .  A
C2288      H2301   1.083       .  S
C2289      C2290   1.419       .  A
C2289      H2302   1.078       .  S
C2290      C2296   1.432       .  A
C2290      C2291   1.421       .  A
C2291      C2293   1.398       .  A
C2291      C2292   1.396       .  A
C2292      H2303   1.085       .  S
C2293      C2294   1.384       .  A
C2293      H2304   1.084       .  S
C2294      C2295   1.397       .  A
C2294      H2305   1.084       .  S
C2295      C2296   1.419       .  A
C2295      C2300   1.397       .  A
C2296      C2297   1.412       .  A
C2297      C2298   1.401       .  A
C2297      H2306   1.078       .  S
C2298      C2299   1.413       .  A
C2298      H2307   1.079       .  S
C2299      C2300   1.411       .  A
C2300      H2308   1.083       .  S
C2309      C2310   1.401       .  A
C2309      C2314   1.400       .  A
C2310      C2311   1.399       .  A
C2310      H2323   1.083   1_655  S
C2311      C2312   1.416       .  A
C2311      H2324   1.077   1_655  S
C2312      C2318   1.432   1_556  A
C2312      C2313   1.423       .  A
C2313      C2315   1.399       .  A
C2313      C2314   1.405       .  A
C2314      H2325   1.085       .  S
C2315      C2316   1.389   1_556  A
C2315      H2326   1.084       .  S
C2316      C2317   1.399       .  A
C2316      H2327   1.084       .  S
C2317      C2318   1.422       .  A
C2317      C2322   1.404       .  A
C2318      C2319   1.416       .  A
C2319      C2320   1.399       .  A
C2319      H2328   1.077   1_655  S
C2320      C2321   1.400       .  A
C2320      H2329   1.083   1_655  S
C2321      C2322   1.401       .  A
C2322      H2330   1.085       .  S
C2331      C2332   1.397       .  A
C2331      C2336   1.397       .  A
C2332      C2333   1.395       .  A
C2332      H2345   1.083       .  S
C2333      C2334   1.416       .  A
C2333      H2346   1.077       .  S
C2334      C2340   1.426       .  A
C2334      C2335   1.422       .  A
C2335      C2337   1.398       .  A
C2335      C2336   1.400       .  A
C2336      H2347   1.085       .  S
C2337      C2338   1.387       .  A
C2337      H2348   1.084       .  S
C2338      C2339   1.399       .  A
C2338      H2349   1.084       .  S
C2339      C2340   1.423       .  A
C2339      C2344   1.401       .  A
C2340      C2341   1.415       .  A
C2341      C2342   1.395       .  A
C2341      H2350   1.077       .  S
C2342      C2343   1.398       .  A
C2342      H2351   1.083       .  S
C2343      C2344   1.399       .  A
C2344      H2352   1.085       .  S
C2353      C2354   1.399       .  A
C2353      C2358   1.404       .  A
C2354      C2355   1.396       .  A
C2354      H2367   1.083       .  S
C2355      C2356   1.415       .  A
C2355      H2368   1.077       .  S
C2356      C2362   1.432       .  A
C2356      C2357   1.422       .  A
C2357      C2359   1.401       .  A
C2357      C2358   1.408       .  A
C2358      H2369   1.084       .  S
C2359      C2360   1.392       .  A
C2359      H2370   1.084       .  S
C2360      C2361   1.401       .  A
C2360      H2371   1.084       .  S
C2361      C2362   1.423       .  A
C2361      C2366   1.410       .  A
C2362      C2363   1.415       .  A
C2363      C2364   1.396       .  A
C2363      H2372   1.077       .  S
C2364      C2365   1.399       .  A
C2364      H2373   1.083       .  S
C2365      C2366   1.404       .  A
C2366      H2374   1.084       .  S
C2375      C2376   1.403       .  A
C2375      C2380   1.399   1_455  A
C2376      C2377   1.404       .  A
C2376      H2389   1.083       .  S
C2377      C2378   1.416       .  A
C2377      H2390   1.078       .  S
C2378      C2384   1.435       .  A
C2378      C2379   1.423       .  A
C2379      C2381   1.398   1_455  A
C2379      C2380   1.404   1_455  A
C2380      H2391   1.085       .  S
C2381      C2382   1.387   1_655  A
C2381      H2392   1.084       .  S
C2382      C2383   1.399       .  A
C2382      H2393   1.084   1_455  S
C2383      C2384   1.419       .  A
C2383      C2388   1.401       .  A
C2384      C2385   1.416       .  A
C2385      C2386   1.405       .  A
C2385      H2394   1.079       .  S
C2386      C2387   1.410       .  A
C2386      H2395   1.083       .  S
C2387      C2388   1.411       .  A
C2388      H2396   1.082       .  S
C2397      C2398   1.400       .  A
C2397      C2402   1.403   1_655  A
C2398      C2399   1.401       .  A
C2398      H2411   1.083       .  S
C2399      C2400   1.417       .  A
C2399      H2412   1.078       .  S
C2400      C2406   1.433   1_556  A
C2400      C2401   1.422   1_655  A
C2401      C2403   1.400       .  A
C2401      C2402   1.404       .  A
C2402      H2413   1.085       .  S
C2403      C2404   1.389   1_556  A
C2403      H2414   1.084       .  S
C2404      C2405   1.399       .  A
C2404      H2415   1.084       .  S
C2405      C2406   1.424   1_455  A
C2405      C2410   1.405       .  A
C2406      C2407   1.415       .  A
C2407      C2408   1.399       .  A
C2407      H2416   1.077       .  S
C2408      C2409   1.401       .  A
C2408      H2417   1.083       .  S
C2409      C2410   1.400   1_655  A
C2410      H2418   1.085       .  S
C2419      C2420   1.400       .  A
C2419      C2424   1.400       .  A
C2420      C2421   1.391       .  A
C2420      H2433   1.083       .  S
C2421      C2422   1.412       .  A
C2421      H2434   1.077       .  S
C2422      C2428   1.426       .  A
C2422      C2423   1.423       .  A
C2423      C2425   1.399       .  A
C2423      C2424   1.407       .  A
C2424      H2435   1.084       .  S
C2425      C2426   1.391       .  A
C2425      H2436   1.084       .  S
C2426      C2427   1.400       .  A
C2426      H2437   1.084       .  S
C2427      C2428   1.422       .  A
C2427      C2432   1.405       .  A
C2428      C2429   1.415       .  A
C2429      C2430   1.392       .  A
C2429      H2438   1.076       .  S
C2430      C2431   1.398       .  A
C2430      H2439   1.084       .  S
C2431      C2432   1.401       .  A
C2432      H2440   1.084       .  S
C2441      C2442   1.401       .  A
C2441      C2446   1.402       .  A
C2442      C2443   1.398       .  A
C2442      H2455   1.083       .  S
C2443      C2444   1.415       .  A
C2443      H2456   1.077       .  S
C2444      C2450   1.433       .  A
C2444      C2445   1.423       .  A
C2445      C2447   1.400       .  A
C2445      C2446   1.408       .  A
C2446      H2457   1.084       .  S
C2447      C2448   1.391       .  A
C2447      H2458   1.084       .  S
C2448      C2449   1.400       .  A
C2448      H2459   1.084       .  S
C2449      C2450   1.423       .  A
C2449      C2454   1.407       .  A
C2450      C2451   1.416       .  A
C2451      C2452   1.398       .  A
C2451      H2460   1.077       .  S
C2452      C2453   1.400       .  A
C2452      H2461   1.083       .  S
C2453      C2454   1.402       .  A
C2454      H2462   1.084       .  S
C2463      C2464   1.400       .  A
C2463      C2468   1.403       .  A
C2464      C2465   1.404       .  A
C2464      H2477   1.083       .  S
C2465      C2466   1.419       .  A
C2465      H2478   1.078       .  S
C2466      C2472   1.434       .  A
C2466      C2467   1.421       .  A
C2467      C2469   1.399       .  A
C2467      C2468   1.401       .  A
C2468      H2479   1.084       .  S
C2469      C2470   1.387       .  A
C2469      H2480   1.084       .  S
C2470      C2471   1.398       .  A
C2470      H2481   1.084       .  S
C2471      C2472   1.421       .  A
C2471      C2476   1.402       .  A
C2472      C2473   1.413       .  A
C2473      C2474   1.401       .  A
C2473      H2482   1.078       .  S
C2474      C2475   1.412       .  A
C2474      H2483   1.080       .  S
C2475      C2476   1.410       .  A
C2476      H2484   1.085       .  S
C2485      C2486   1.401       .  A
C2485      C2490   1.400       .  A
C2486      C2487   1.398       .  A
C2486      H2499   1.083       .  S
C2487      C2488   1.416       .  A
C2487      H2500   1.077       .  S
C2488      C2494   1.431       .  A
C2488      C2489   1.423       .  A
C2489      C2491   1.399       .  A
C2489      C2490   1.404       .  A
C2490      H2501   1.085       .  S
C2491      C2492   1.389       .  A
C2491      H2502   1.084       .  S
C2492      C2493   1.399       .  A
C2492      H2503   1.084       .  S
C2493      C2494   1.423       .  A
C2493      C2498   1.405       .  A
C2494      C2495   1.415       .  A
C2495      C2496   1.397       .  A
C2495      H2504   1.077       .  S
C2496      C2497   1.401       .  A
C2496      H2505   1.083       .  S
C2497      C2498   1.400       .  A
C2498      H2506   1.085       .  S
C2507      C2508   1.400       .  A
C2507      C2512   1.401       .  A
C2508      C2509   1.397       .  A
C2508      H2521   1.083       .  S
C2509      C2510   1.415       .  A
C2509      H2522   1.077       .  S
C2510      C2516   1.431       .  A
C2510      C2511   1.423       .  A
C2511      C2513   1.399       .  A
C2511      C2512   1.405       .  A
C2512      H2523   1.085       .  S
C2513      C2514   1.390       .  A
C2513      H2524   1.084       .  S
C2514      C2515   1.399       .  A
C2514      H2525   1.084       .  S
C2515      C2516   1.422       .  A
C2515      C2520   1.405       .  A
C2516      C2517   1.415       .  A
C2517      C2518   1.397       .  A
C2517      H2526   1.077       .  S
C2518      C2519   1.400       .  A
C2518      H2527   1.083       .  S
C2519      C2520   1.401       .  A
C2520      H2528   1.085       .  S
C2529      C2530   1.400       .  A
C2529      C2534   1.402       .  A
C2530      C2531   1.394       .  A
C2530      H2543   1.083       .  S
C2531      C2532   1.414       .  A
C2531      H2544   1.077       .  S
C2532      C2538   1.430       .  A
C2532      C2533   1.423       .  A
C2533      C2535   1.400       .  A
C2533      C2534   1.407       .  A
C2534      H2545   1.084       .  S
C2535      C2536   1.390       .  A
C2535      H2546   1.084       .  S
C2536      C2537   1.400       .  A
C2536      H2547   1.084       .  S
C2537      C2538   1.422       .  A
C2537      C2542   1.405       .  A
C2538      C2539   1.416       .  A
C2539      C2540   1.396       .  A
C2539      H2548   1.077       .  S
C2540      C2541   1.399       .  A
C2540      H2549   1.083       .  S
C2541      C2542   1.401       .  A
C2542      H2550   1.085       .  S
C2551      C2552   1.401       .  A
C2551      C2556   1.402       .  A
C2552      C2553   1.395       .  A
C2552      H2565   1.084       .  S
C2553      C2554   1.413       .  A
C2553      H2566   1.077       .  S
C2554      C2560   1.431       .  A
C2554      C2555   1.424       .  A
C2555      C2557   1.400       .  A
C2555      C2556   1.409       .  A
C2556      H2567   1.084       .  S
C2557      C2558   1.392       .  A
C2557      H2568   1.084       .  S
C2558      C2559   1.400       .  A
C2558      H2569   1.084       .  S
C2559      C2560   1.422       .  A
C2559      C2564   1.408       .  A
C2560      C2561   1.415       .  A
C2561      C2562   1.397       .  A
C2561      H2570   1.077       .  S
C2562      C2563   1.400       .  A
C2562      H2571   1.083       .  S
C2563      C2564   1.402       .  A
C2564      H2572   1.084       .  S
C2573      C2574   1.399       .  A
C2573      C2578   1.400       .  A
C2574      C2575   1.394       .  A
C2574      H2587   1.083       .  S
C2575      C2576   1.414       .  A
C2575      H2588   1.077       .  S
C2576      C2582   1.428       .  A
C2576      C2577   1.423       .  A
C2577      C2579   1.399       .  A
C2577      C2578   1.403       .  A
C2578      H2589   1.085       .  S
C2579      C2580   1.389       .  A
C2579      H2590   1.084       .  S
C2580      C2581   1.399       .  A
C2580      H2591   1.084       .  S
C2581      C2582   1.422       .  A
C2581      C2586   1.404       .  A
C2582      C2583   1.415       .  A
C2583      C2584   1.395       .  A
C2583      H2592   1.077       .  S
C2584      C2585   1.399       .  A
C2584      H2593   1.083       .  S
C2585      C2586   1.400       .  A
C2586      H2594   1.085       .  S
C2595      C2596   1.400       .  A
C2595      C2600   1.402       .  A
C2596      C2597   1.400       .  A
C2596      H2609   1.083       .  S
C2597      C2598   1.416       .  A
C2597      H2610   1.078       .  S
C2598      C2604   1.432       .  A
C2598      C2599   1.422       .  A
C2599      C2601   1.399       .  A
C2599      C2600   1.404       .  A
C2600      H2611   1.085       .  S
C2601      C2602   1.388       .  A
C2601      H2612   1.084       .  S
C2602      C2603   1.398       .  A
C2602      H2613   1.084       .  S
C2603      C2604   1.423       .  A
C2603      C2608   1.403       .  A
C2604      C2605   1.416       .  A
C2605      C2606   1.399       .  A
C2605      H2614   1.078       .  S
C2606      C2607   1.399       .  A
C2606      H2615   1.083       .  S
C2607      C2608   1.399       .  A
C2608      H2616   1.085       .  S
C2617      C2618   1.398       .  A
C2617      C2622   1.403       .  A
C2618      C2619   1.395       .  A
C2618      H2631   1.083       .  S
C2619      C2620   1.415       .  A
C2619      H2632   1.077       .  S
C2620      C2626   1.428       .  A
C2620      C2621   1.422       .  A
C2621      C2623   1.400       .  A
C2621      C2622   1.405       .  A
C2622      H2633   1.085   1_545  S
C2623      C2624   1.391       .  A
C2623      H2634   1.084   1_545  S
C2624      C2625   1.400       .  A
C2624      H2635   1.084   1_545  S
C2625      C2626   1.423       .  A
C2625      C2630   1.405       .  A
C2626      C2627   1.415       .  A
C2627      C2628   1.394       .  A
C2627      H2636   1.077       .  S
C2628      C2629   1.398       .  A
C2628      H2637   1.083       .  S
C2629      C2630   1.402       .  A
C2630      H2638   1.085       .  S
C2639      C2640   1.399       .  A
C2639      C2644   1.403       .  A
C2640      C2641   1.398       .  A
C2640      H2653   1.083       .  S
C2641      C2642   1.416       .  A
C2641      H2654   1.077       .  S
C2642      C2648   1.430       .  A
C2642      C2643   1.422       .  A
C2643      C2645   1.401       .  A
C2643      C2644   1.405       .  A
C2644      H2655   1.085       .  S
C2645      C2646   1.391       .  A
C2645      H2656   1.084       .  S
C2646      C2647   1.399       .  A
C2646      H2657   1.084       .  S
C2647      C2648   1.422       .  A
C2647      C2652   1.405       .  A
C2648      C2649   1.415       .  A
C2649      C2650   1.397       .  A
C2649      H2658   1.078       .  S
C2650      C2651   1.399       .  A
C2650      H2659   1.083       .  S
C2651      C2652   1.401       .  A
C2652      H2660   1.085       .  S
C2661      C2662   1.402       .  A
C2661      C2666   1.405       .  A
C2662      C2663   1.399       .  A
C2662      H2675   1.083       .  S
C2663      C2664   1.415       .  A
C2663      H2676   1.077       .  S
C2664      C2670   1.435       .  A
C2664      C2665   1.423       .  A
C2665      C2667   1.401       .  A
C2665      C2666   1.413       .  A
C2666      H2677   1.084       .  S
C2667      C2668   1.394       .  A
C2667      H2678   1.084       .  S
C2668      C2669   1.401       .  A
C2668      H2679   1.084       .  S
C2669      C2670   1.424       .  A
C2669      C2674   1.413       .  A
C2670      C2671   1.414       .  A
C2671      C2672   1.397       .  A
C2671      H2680   1.077       .  S
C2672      C2673   1.402       .  A
C2672      H2681   1.083       .  S
C2673      C2674   1.404       .  A
C2674      H2682   1.084       .  S
C2683      C2684   1.401       .  A
C2683      C2688   1.400   1_455  A
C2684      C2685   1.399       .  A
C2684      H2697   1.083       .  S
C2685      C2686   1.416       .  A
C2685      H2698   1.077       .  S
C2686      C2692   1.432       .  A
C2686      C2687   1.423       .  A
C2687      C2689   1.399   1_455  A
C2687      C2688   1.404   1_455  A
C2688      H2699   1.085       .  S
C2689      C2690   1.389       .  A
C2689      H2700   1.084       .  S
C2690      C2691   1.399   1_655  A
C2690      H2701   1.084       .  S
C2691      C2692   1.423       .  A
C2691      C2696   1.405       .  A
C2692      C2693   1.416       .  A
C2693      C2694   1.399       .  A
C2693      H2702   1.077       .  S
C2694      C2695   1.401       .  A
C2694      H2703   1.083       .  S
C2695      C2696   1.401       .  A
C2696      H2704   1.085   1_455  S
C2705      C2706   1.400       .  A
C2705      C2710   1.399       .  A
C2706      C2707   1.398       .  A
C2706      H2719   1.083       .  S
C2707      C2708   1.416       .  A
C2707      H2720   1.078       .  S
C2708      C2714   1.429       .  A
C2708      C2709   1.422       .  A
C2709      C2711   1.398       .  A
C2709      C2710   1.400       .  A
C2710      H2721   1.085       .  S
C2711      C2712   1.387       .  A
C2711      H2722   1.084       .  S
C2712      C2713   1.398       .  A
C2712      H2723   1.084       .  S
C2713      C2714   1.423       .  A
C2713      C2718   1.402       .  A
C2714      C2715   1.415       .  A
C2715      C2716   1.397       .  A
C2715      H2724   1.077       .  S
C2716      C2717   1.401       .  A
C2716      H2725   1.083       .  S
C2717      C2718   1.399       .  A
C2718      H2726   1.085       .  S
C2727      C2728   1.400       .  A
C2727      C2732   1.401       .  A
C2728      C2729   1.397       .  A
C2728      H2741   1.083       .  S
C2729      C2730   1.415       .  A
C2729      H2742   1.077       .  S
C2730      C2736   1.432       .  A
C2730      C2731   1.423       .  A
C2731      C2733   1.399       .  A
C2731      C2732   1.407       .  A
C2732      H2743   1.085       .  S
C2733      C2734   1.390       .  A
C2733      H2744   1.084       .  S
C2734      C2735   1.399       .  A
C2734      H2745   1.084       .  S
C2735      C2736   1.423       .  A
C2735      C2740   1.407       .  A
C2736      C2737   1.415       .  A
C2737      C2738   1.398       .  A
C2737      H2746   1.077       .  S
C2738      C2739   1.402       .  A
C2738      H2747   1.083       .  S
C2739      C2740   1.401       .  A
C2740      H2748   1.084       .  S
C2749      C2750   1.402       .  A
C2749      C2754   1.402       .  A
C2750      C2751   1.397       .  A
C2750      H2763   1.083       .  S
C2751      C2752   1.413       .  A
C2751      H2764   1.078       .  S
C2752      C2758   1.430       .  A
C2752      C2753   1.423       .  A
C2753      C2755   1.400       .  A
C2753      C2754   1.408       .  A
C2754      H2765   1.084       .  S
C2755      C2756   1.391       .  A
C2755      H2766   1.084       .  S
C2756      C2757   1.400       .  A
C2756      H2767   1.084       .  S
C2757      C2758   1.419       .  A
C2757      C2762   1.403       .  A
C2758      C2759   1.415       .  A
C2759      C2760   1.399       .  A
C2759      H2768   1.077       .  S
C2760      C2761   1.407       .  A
C2760      H2769   1.082       .  S
C2761      C2762   1.411       .  A
C2762      H2770   1.083       .  S
C2771      C2772   1.407       .  A
C2771      C2776   1.423       .  A
C2772      C2773   1.411       .  A
C2772      H2785   1.083       .  S
C2773      C2774   1.421   1_455  A
C2773      H2786   1.079       .  S
C2774      C2780   1.440       .  A
C2774      C2775   1.412       .  A
C2775      C2777   1.404       .  A
C2775      C2776   1.408   1_655  A
C2776      H2787   1.081       .  S
C2777      C2778   1.396       .  A
C2777      H2788   1.084       .  S
C2778      C2779   1.400       .  A
C2778      H2789   1.084       .  S
C2779      C2780   1.428       .  A
C2779      C2784   1.424       .  A
C2780      C2781   1.404       .  A
C2781      C2782   1.395       .  A
C2781      H2790   1.079       .  S
C2782      C2783   1.417       .  A
C2782      H2791   1.082       .  S
C2783      C2784   1.408       .  A
C2784      H2792   1.083       .  S
C2793      C2794   1.411       .  A
C2793      C2798   1.409       .  A
C2794      C2795   1.390       .  A
C2794      H2807   1.082       .  S
C2795      C2796   1.410       .  A
C2795      H2808   1.077       .  S
C2796      C2802   1.426       .  A
C2796      C2797   1.420       .  A
C2797      C2799   1.400       .  A
C2797      C2798   1.406       .  A
C2798      H2809   1.084       .  S
C2799      C2800   1.393       .  A
C2799      H2810   1.084       .  S
C2800      C2801   1.401       .  A
C2800      H2811   1.084       .  S
C2801      C2802   1.422       .  A
C2801      C2806   1.408       .  A
C2802      C2803   1.413       .  A
C2803      C2804   1.391       .  A
C2803      H2812   1.077       .  S
C2804      C2805   1.399       .  A
C2804      H2813   1.084       .  S
C2805      C2806   1.402       .  A
C2806      H2814   1.084       .  S
C2815      C2816   1.413       .  A
C2815      C2820   1.421       .  A
C2816      C2817   1.402       .  A
C2816      H2829   1.079       .  S
C2817      C2818   1.413       .  A
C2817      H2830   1.078       .  S
C2818      C2824   1.442       .  A
C2818      C2819   1.419       .  A
C2819      C2821   1.405       .  A
C2819      C2820   1.423       .  A
C2820      H2831   1.083       .  S
C2821      C2822   1.402       .  A
C2821      H2832   1.084       .  S
C2822      C2823   1.404       .  A
C2822      H2833   1.084       .  S
C2823      C2824   1.422       .  A
C2823      C2828   1.427       .  A
C2824      C2825   1.409       .  A
C2825      C2826   1.398       .  A
C2825      H2834   1.078       .  S
C2826      C2827   1.415       .  A
C2826      H2835   1.081       .  S
C2827      C2828   1.418       .  A
C2828      H2836   1.083       .  S
C2837      C2838   1.415       .  A
C2837      C2842   1.412       .  A
C2838      C2839   1.393       .  A
C2838      H2851   1.082       .  S
C2839      C2840   1.404       .  A
C2839      H2852   1.078       .  S
C2840      C2846   1.437       .  A
C2840      C2841   1.426       .  A
C2841      C2843   1.402       .  A
C2841      C2842   1.425       .  A
C2842      H2853   1.082       .  S
C2843      C2844   1.399       .  A
C2843      H2854   1.084       .  S
C2844      C2845   1.405       .  A
C2844      H2855   1.084       .  S
C2845      C2846   1.413       .  A
C2845      C2850   1.412       .  A
C2846      C2847   1.419       .  A
C2847      C2848   1.407       .  A
C2847      H2856   1.079       .  S
C2848      C2849   1.408       .  A
C2848      H2857   1.083       .  S
C2849      C2850   1.424       .  A
C2850      H2858   1.081       .  S
C2859      C2860   1.401       .  A
C2859      C2864   1.399       .  A
C2860      C2861   1.399       .  A
C2860      H2873   1.083       .  S
C2861      C2862   1.415       .  A
C2861      H2874   1.078       .  S
C2862      C2868   1.431       .  A
C2862      C2863   1.424       .  A
C2863      C2865   1.398       .  A
C2863      C2864   1.404       .  A
C2864      H2875   1.085       .  S
C2865      C2866   1.388       .  A
C2865      H2876   1.084       .  S
C2866      C2867   1.399       .  A
C2866      H2877   1.084       .  S
C2867      C2868   1.418       .  A
C2867      C2872   1.401       .  A
C2868      C2869   1.415       .  A
C2869      C2870   1.402       .  A
C2869      H2878   1.078       .  S
C2870      C2871   1.409       .  A
C2870      H2879   1.083       .  S
C2871      C2872   1.412       .  A
C2872      H2880   1.083       .  S
C2881      C2882   1.415       .  A
C2881      C2886   1.416       .  A
C2882      C2883   1.409       .  A
C2882      H2895   1.079       .  S
C2883      C2884   1.415       .  A
C2883      H2896   1.078       .  S
C2884      C2890   1.449       .  A
C2884      C2885   1.422       .  A
C2885      C2887   1.402       .  A
C2885      C2886   1.420       .  A
C2886      H2897   1.084       .  S
C2887      C2888   1.397       .  A
C2887      H2898   1.084       .  S
C2888      C2889   1.402       .  A
C2888      H2899   1.084       .  S
C2889      C2890   1.421       .  A
C2889      C2894   1.420       .  A
C2890      C2891   1.417       .  A
C2891      C2892   1.411       .  A
C2891      H2900   1.078       .  S
C2892      C2893   1.414       .  A
C2892      H2901   1.079       .  S
C2893      C2894   1.417       .  A
C2894      H2902   1.084       .  S
C2903      C2904   1.418       .  A
C2903      C2908   1.412       .  A
C2904      C2905   1.403       .  A
C2904      H2917   1.081       .  S
C2905      C2906   1.409       .  A
C2905      H2918   1.079   1_545  S
C2906      C2912   1.444   1_545  A
C2906      C2907   1.426       .  A
C2907      C2909   1.399       .  A
C2907      C2908   1.420       .  A
C2908      H2919   1.084       .  S
C2909      C2910   1.393       .  A
C2909      H2920   1.084       .  S
C2910      C2911   1.403   1_545  A
C2910      H2921   1.084       .  S
C2911      C2912   1.416       .  A
C2911      C2916   1.406       .  A
C2912      C2913   1.423       .  A
C2913      C2914   1.415       .  A
C2913      H2922   1.078       .  S
C2914      C2915   1.407       .  A
C2914      H2923   1.081       .  S
C2915      C2916   1.418       .  A
C2916      H2924   1.084       .  S
C2925      C2926   1.401       .  A
C2925      C2930   1.400       .  A
C2926      C2927   1.398       .  A
C2926      H2939   1.083       .  S
C2927      C2928   1.415       .  A
C2927      H2940   1.077       .  S
C2928      C2934   1.430       .  A
C2928      C2929   1.423       .  A
C2929      C2931   1.399       .  A
C2929      C2930   1.404       .  A
C2930      H2941   1.084       .  S
C2931      C2932   1.388       .  A
C2931      H2942   1.084       .  S
C2932      C2933   1.399       .  A
C2932      H2943   1.084       .  S
C2933      C2934   1.419       .  A
C2933      C2938   1.401       .  A
C2934      C2935   1.414       .  A
C2935      C2936   1.398       .  A
C2935      H2944   1.078       .  S
C2936      C2937   1.409       .  A
C2936      H2945   1.081       .  S
C2937      C2938   1.409       .  A
C2938      H2946   1.084       .  S
C2947      C2948   1.412       .  A
C2947      C2952   1.411       .  A
C2948      C2949   1.405       .  A
C2948      H2961   1.082       .  S
C2949      C2950   1.415       .  A
C2949      H2962   1.078       .  S
C2950      C2956   1.440       .  A
C2950      C2951   1.421       .  A
C2951      C2953   1.399       .  A
C2951      C2952   1.408       .  A
C2952      H2963   1.083       .  S
C2953      C2954   1.390       .  A
C2953      H2964   1.084       .  S
C2954      C2955   1.400       .  A
C2954      H2965   1.084       .  S
C2955      C2956   1.421       .  A
C2955      C2960   1.408       .  A
C2956      C2957   1.415       .  A
C2957      C2958   1.406       .  A
C2957      H2966   1.078       .  S
C2958      C2959   1.412       .  A
C2958      H2967   1.082       .  S
C2959      C2960   1.411       .  A
C2960      H2968   1.084       .  S
C2969      C2970   1.414       .  A
C2969      C2974   1.419       .  A
C2970      C2971   1.397       .  A
C2970      H2983   1.082       .  S
C2971      C2972   1.410       .  A
C2971      H2984   1.077       .  S
C2972      C2978   1.443       .  A
C2972      C2973   1.423       .  A
C2973      C2975   1.405       .  A
C2973      C2974   1.429       .  A
C2974      H2985   1.083       .  S
C2975      C2976   1.404       .  A
C2975      H2986   1.084       .  S
C2976      C2977   1.406       .  A
C2976      H2987   1.084       .  S
C2977      C2978   1.419       .  A
C2977      C2982   1.426       .  A
C2978      C2979   1.412       .  A
C2979      C2980   1.401       .  A
C2979      H2988   1.078       .  S
C2980      C2981   1.414       .  A
C2980      H2989   1.080       .  S
C2981      C2982   1.422       .  A
C2982      H2990   1.083       .  S
C2991      C2992   1.412       .  A
C2991      C2996   1.415       .  A
C2992      C2993   1.404       .  A
C2992      H3005   1.083       .  S
C2993      C2994   1.414       .  A
C2993      H3006   1.078       .  S
C2994      C3000   1.440       .  A
C2994      C2995   1.420       .  A
C2995      C2997   1.400       .  A
C2995      C2996   1.410       .  A
C2996      H3007   1.080       .  S
C2997      C2998   1.390       .  A
C2997      H3008   1.084       .  S
C2998      C2999   1.400       .  A
C2998      H3009   1.084       .  S
C2999      C3000   1.421       .  A
C2999      C3004   1.409       .  A
C3000      C3001   1.414       .  A
C3001      C3002   1.404       .  A
C3001      H3010   1.078       .  S
C3002      C3003   1.411       .  A
C3002      H3011   1.083       .  S
C3003      C3004   1.413       .  A
C3004      H3012   1.081       .  S
C3013      C3014   1.417       .  A
C3013      C3018   1.410       .  A
C3014      C3015   1.394       .  A
C3014      H3027   1.082       .  S
C3015      C3016   1.404       .  A
C3015      H3028   1.078       .  S
C3016      C3022   1.440       .  A
C3016      C3017   1.428       .  A
C3017      C3019   1.400       .  A
C3017      C3018   1.426       .  A
C3018      H3029   1.083       .  S
C3019      C3020   1.397       .  A
C3019      H3030   1.084       .  S
C3020      C3021   1.405       .  A
C3020      H3031   1.084       .  S
C3021      C3022   1.413       .  A
C3021      C3026   1.411   1_655  A
C3022      C3023   1.421   1_655  A
C3023      C3024   1.410       .  A
C3023      H3032   1.078       .  S
C3024      C3025   1.407       .  A
C3024      H3033   1.083       .  S
C3025      C3026   1.424       .  A
C3026      H3034   1.080       .  S
C3035      C3036   1.414       .  A
C3035      C3040   1.413       .  A
C3036      C3037   1.389       .  A
C3036      H3049   1.082       .  S
C3037      C3038   1.406       .  A
C3037      H3050   1.077       .  S
C3038      C3044   1.430       .  A
C3038      C3039   1.421       .  A
C3039      C3041   1.402       .  A
C3039      C3040   1.417       .  A
C3040      H3051   1.084       .  S
C3041      C3042   1.397       .  A
C3041      H3052   1.084       .  S
C3042      C3043   1.403       .  A
C3042      H3053   1.084       .  S
C3043      C3044   1.421       .  A
C3043      C3048   1.413       .  A
C3044      C3045   1.415       .  A
C3045      C3046   1.394       .  A
C3045      H3054   1.077       .  S
C3046      C3047   1.399       .  A
C3046      H3055   1.083       .  S
C3047      C3048   1.407       .  A
C3048      H3056   1.084       .  S
C3057      C3058   1.414       .  A
C3057      C3062   1.416       .  A
C3058      C3059   1.403       .  A
C3058      H3071   1.079       .  S
C3059      C3060   1.413       .  A
C3059      H3072   1.077       .  S
C3060      C3066   1.444       .  A
C3060      C3061   1.421       .  A
C3061      C3063   1.402       .  A
C3061      C3062   1.419       .  A
C3062      H3073   1.084       .  S
C3063      C3064   1.397       .  A
C3063      H3074   1.084       .  S
C3064      C3065   1.403       .  A
C3064      H3075   1.084       .  S
C3065      C3066   1.420       .  A
C3065      C3070   1.419       .  A
C3066      C3067   1.414       .  A
C3067      C3068   1.404       .  A
C3067      H3076   1.077       .  S
C3068      C3069   1.414       .  A
C3068      H3077   1.078       .  S
C3069      C3070   1.418       .  A
C3070      H3078   1.084       .  S
C3079      C3080   1.414       .  A
C3079      C3084   1.420       .  A
C3080      C3081   1.405       .  A
C3080      H3093   1.077       .  S
C3081      C3082   1.412       .  A
C3081      H3094   1.079       .  S
C3082      C3088   1.442       .  A
C3082      C3083   1.418       .  A
C3083      C3085   1.404       .  A
C3083      C3084   1.422       .  A
C3084      H3095   1.084       .  S
C3085      C3086   1.402       .  A
C3085      H3096   1.084       .  S
C3086      C3087   1.404       .  A
C3086      H3097   1.084       .  S
C3087      C3088   1.421       .  A
C3087      C3092   1.424       .  A
C3088      C3089   1.410       .  A
C3089      C3090   1.402       .  A
C3089      H3098   1.079       .  S
C3090      C3091   1.417       .  A
C3090      H3099   1.080       .  S
C3091      C3092   1.418       .  A
C3092      H3100   1.082       .  S
C3101      C3102   1.415       .  A
C3101      C3106   1.424       .  A
C3102      C3103   1.392       .  A
C3102      H3115   1.074       .  S
C3103      C3104   1.408       .  A
C3103      H3116   1.077       .  S
C3104      C3110   1.435       .  A
C3104      C3105   1.417       .  A
C3105      C3107   1.405       .  A
C3105      C3106   1.422       .  A
C3106      H3117   1.084       .  S
C3107      C3108   1.403       .  A
C3107      H3118   1.084       .  S
C3108      C3109   1.405       .  A
C3108      H3119   1.083       .  S
C3109      C3110   1.419       .  A
C3109      C3114   1.424       .  A
C3110      C3111   1.406       .  A
C3111      C3112   1.390       .  A
C3111      H3120   1.076       .  S
C3112      C3113   1.415       .  A
C3112      H3121   1.075       .  S
C3113      C3114   1.422       .  A
C3114      H3122   1.084       .  S
C3123      C3124   1.409       .  A
C3123      C3128   1.422       .  A
C3124      C3125   1.410       .  A
C3124      H3137   1.083       .  S
C3125      C3126   1.420       .  A
C3125      H3138   1.079       .  S
C3126      C3132   1.439   1_545  A
C3126      C3127   1.414       .  A
C3127      C3129   1.404   1_545  A
C3127      C3128   1.412       .  A
C3128      H3139   1.081       .  S
C3129      C3130   1.398       .  A
C3129      H3140   1.084       .  S
C3130      C3131   1.402       .  A
C3130      H3141   1.083       .  S
C3131      C3132   1.427       .  A
C3131      C3136   1.426       .  A
C3132      C3133   1.404       .  A
C3133      C3134   1.394       .  A
C3133      H3142   1.078       .  S
C3134      C3135   1.417       .  A
C3134      H3143   1.082       .  S
C3135      C3136   1.412       .  A
C3136      H3144   1.082       .  S
C3145      C3146   1.414       .  A
C3145      C3150   1.411       .  A
C3146      C3147   1.389       .  A
C3146      H3159   1.082       .  S
C3147      C3148   1.407       .  A
C3147      H3160   1.077       .  S
C3148      C3154   1.430       .  A
C3148      C3149   1.422       .  A
C3149      C3151   1.401       .  A
C3149      C3150   1.415       .  A
C3150      H3161   1.083       .  S
C3151      C3152   1.396       .  A
C3151      H3162   1.084       .  S
C3152      C3153   1.402       .  A
C3152      H3163   1.084       .  S
C3153      C3154   1.420       .  A
C3153      C3158   1.411       .  A
C3154      C3155   1.416       .  A
C3155      C3156   1.395       .  A
C3155      H3164   1.076       .  S
C3156      C3157   1.398       .  A
C3156      H3165   1.083       .  S
C3157      C3158   1.406       .  A
C3158      H3166   1.084       .  S
C3167      C3168   1.416       .  A
C3167      C3172   1.413       .  A
C3168      C3169   1.402       .  A
C3168      H3181   1.079       .  S
C3169      C3170   1.411       .  A
C3169      H3182   1.078       .  S
C3170      C3176   1.442       .  A
C3170      C3171   1.422       .  A
C3171      C3173   1.401       .  A
C3171      C3172   1.417       .  A
C3172      H3183   1.084       .  S
C3173      C3174   1.395       .  A
C3173      H3184   1.084       .  S
C3174      C3175   1.402       .  A
C3174      H3185   1.084       .  S
C3175      C3176   1.419       .  A
C3175      C3180   1.414       .  A
C3176      C3177   1.416       .  A
C3177      C3178   1.406       .  A
C3177      H3186   1.078       .  S
C3178      C3179   1.413       .  A
C3178      H3187   1.079       .  S
C3179      C3180   1.415       .  A
C3180      H3188   1.084       .  S
C3189      C3190   1.416       .  A
C3189      C3194   1.421       .  A
C3190      C3191   1.405       .  A
C3190      H3203   1.079       .  S
C3191      C3192   1.413       .  A
C3191      H3204   1.078       .  S
C3192      C3198   1.448       .  A
C3192      C3193   1.420       .  A
C3193      C3195   1.404       .  A
C3193      C3194   1.425       .  A
C3194      H3205   1.083       .  S
C3195      C3196   1.401       .  A
C3195      H3206   1.083       .  S
C3196      C3197   1.404       .  A
C3196      H3207   1.084       .  S
C3197      C3198   1.421       .  A
C3197      C3202   1.426       .  A
C3198      C3199   1.412       .  A
C3199      C3200   1.404       .  A
C3199      H3208   1.078       .  S
C3200      C3201   1.417       .  A
C3200      H3209   1.079       .  S
C3201      C3202   1.420       .  A
C3202      H3210   1.082       .  S
C3211      C3212   1.416       .  A
C3211      C3216   1.421       .  A
C3212      C3213   1.407       .  A
C3212      H3225   1.077       .  S
C3213      C3214   1.413       .  A
C3213      H3226   1.079       .  S
C3214      C3220   1.447       .  A
C3214      C3215   1.420       .  A
C3215      C3217   1.404       .  A
C3215      C3216   1.426       .  A
C3216      H3227   1.084       .  S
C3217      C3218   1.401       .  A
C3217      H3228   1.083       .  S
C3218      C3219   1.404       .  A
C3218      H3229   1.084       .  S
C3219      C3220   1.421       .  A
C3219      C3224   1.425       .  A
C3220      C3221   1.413       .  A
C3221      C3222   1.407       .  A
C3221      H3230   1.079       .  S
C3222      C3223   1.418       .  A
C3222      H3231   1.079       .  S
C3223      C3224   1.419       .  A
C3224      H3232   1.082       .  S
C3233      C3234   1.417       .  A
C3233      C3238   1.421       .  A
C3234      C3235   1.394       .  A
C3234      H3247   1.072       .  S
C3235      C3236   1.407       .  A
C3235      H3248   1.077       .  S
C3236      C3242   1.437       .  A
C3236      C3237   1.419       .  A
C3237      C3239   1.403       .  A
C3237      C3238   1.419       .  A
C3238      H3249   1.084       .  S
C3239      C3240   1.399       .  A
C3239      H3250   1.083       .  S
C3240      C3241   1.403       .  A
C3240      H3251   1.084       .  S
C3241      C3242   1.418       .  A
C3241      C3246   1.418       .  A
C3242      C3243   1.410       .  A
C3243      C3244   1.396       .  A
C3243      H3252   1.077       .  S
C3244      C3245   1.415       .  A
C3244      H3253   1.074       .  S
C3245      C3246   1.419       .  A
C3246      H3254   1.084       .  S
C3255      C3256   1.411       .  A
C3255      C3260   1.424       .  A
C3256      C3257   1.412       .  A
C3256      H3269   1.083       .  S
C3257      C3258   1.421       .  A
C3257      H3270   1.079       .  S
C3258      C3264   1.442       .  A
C3258      C3259   1.414       .  A
C3259      C3261   1.405       .  A
C3259      C3260   1.413       .  A
C3260      H3271   1.079       .  S
C3261      C3262   1.398       .  A
C3261      H3272   1.084       .  S
C3262      C3263   1.401       .  A
C3262      H3273   1.084       .  S
C3263      C3264   1.428       .  A
C3263      C3268   1.427       .  A
C3264      C3265   1.405       .  A
C3265      C3266   1.396       .  A
C3265      H3274   1.079       .  S
C3266      C3267   1.418       .  A
C3266      H3275   1.083       .  S
C3267      C3268   1.410       .  A
C3268      H3276   1.083       .  S
C3277      C3278   1.402       .  A
C3277      C3282   1.402       .  A
C3278      C3279   1.399       .  A
C3278      H3291   1.083       .  S
C3279      C3280   1.415       .  A
C3279      H3292   1.077       .  S
C3280      C3286   1.433       .  A
C3280      C3281   1.424       .  A
C3281      C3283   1.399       .  A
C3281      C3282   1.407       .  A
C3282      H3293   1.084       .  S
C3283      C3284   1.389       .  A
C3283      H3294   1.084       .  S
C3284      C3285   1.399       .  A
C3284      H3295   1.084       .  S
C3285      C3286   1.422       .  A
C3285      C3290   1.404       .  A
C3286      C3287   1.417       .  A
C3287      C3288   1.400       .  A
C3287      H3296   1.078       .  S
C3288      C3289   1.401       .  A
C3288      H3297   1.083       .  S
C3289      C3290   1.400       .  A
C3290      H3298   1.085       .  S
C3299      C3300   1.400       .  A
C3299      C3304   1.404       .  A
C3300      C3301   1.397       .  A
C3300      H3313   1.083       .  S
C3301      C3302   1.416       .  A
C3301      H3314   1.077       .  S
C3302      C3308   1.432       .  A
C3302      C3303   1.421       .  A
C3303      C3305   1.401       .  A
C3303      C3304   1.410       .  A
C3304      H3315   1.084       .  S
C3305      C3306   1.394       .  A
C3305      H3316   1.084       .  S
C3306      C3307   1.400       .  A
C3306      H3317   1.084       .  S
C3307      C3308   1.422       .  A
C3307      C3312   1.412       .  A
C3308      C3309   1.409       .  A
C3309      C3310   1.392       .  A
C3309      H3318   1.077       .  S
C3310      C3311   1.412       .  A
C3310      H3319   1.082       .  S
C3311      C3312   1.410       .  A
C3312      H3320   1.084       .  S
C3321      C3322   1.400       .  A
C3321      C3326   1.400       .  A
C3322      C3323   1.399       .  A
C3322      H3335   1.083   1_545  S
C3323      C3324   1.417       .  A
C3323      H3336   1.078       .  S
C3324      C3330   1.429       .  A
C3324      C3325   1.422       .  A
C3325      C3327   1.399       .  A
C3325      C3326   1.402       .  A
C3326      H3337   1.085       .  S
C3327      C3328   1.389       .  A
C3327      H3338   1.084       .  S
C3328      C3329   1.398       .  A
C3328      H3339   1.084       .  S
C3329      C3330   1.423       .  A
C3329      C3334   1.405       .  A
C3330      C3331   1.413       .  A
C3331      C3332   1.396       .  A
C3331      H3340   1.078       .  S
C3332      C3333   1.401       .  A
C3332      H3341   1.083       .  S
C3333      C3334   1.400       .  A
C3334      H3342   1.085       .  S
C3343      C3344   1.397       .  A
C3343      C3348   1.401       .  A
C3344      C3345   1.395       .  A
C3344      H3357   1.083       .  S
C3345      C3346   1.416       .  A
C3345      H3358   1.077       .  S
C3346      C3352   1.428       .  A
C3346      C3347   1.422       .  A
C3347      C3349   1.400       .  A
C3347      C3348   1.403       .  A
C3348      H3359   1.085       .  S
C3349      C3350   1.390       .  A
C3349      H3360   1.084       .  S
C3350      C3351   1.400       .  A
C3350      H3361   1.084       .  S
C3351      C3352   1.423       .  A
C3351      C3356   1.405       .  A
C3352      C3353   1.414       .  A
C3353      C3354   1.394       .  A
C3353      H3362   1.077       .  S
C3354      C3355   1.398       .  A
C3354      H3363   1.083       .  S
C3355      C3356   1.402       .  A
C3356      H3364   1.085       .  S
C3365      C3366   1.400   1_545  A
C3365      C3370   1.404       .  A
C3366      C3367   1.392   1_565  A
C3366      H3379   1.083       .  S
C3367      C3368   1.413       .  A
C3367      H3380   1.077   1_545  S
C3368      C3374   1.429       .  A
C3368      C3369   1.422       .  A
C3369      C3371   1.401       .  A
C3369      C3370   1.412       .  A
C3370      H3381   1.084       .  S
C3371      C3372   1.395       .  A
C3371      H3382   1.084       .  S
C3372      C3373   1.402       .  A
C3372      H3383   1.084       .  S
C3373      C3374   1.419       .  A
C3373      C3378   1.412       .  A
C3374      C3375   1.409       .  A
C3375      C3376   1.390       .  A
C3375      H3384   1.077       .  S
C3376      C3377   1.411       .  A
C3376      H3385   1.082       .  S
C3377      C3378   1.415       .  A
C3378      H3386   1.079       .  S
C3387      C3388   1.400       .  A
C3387      C3392   1.398   1_545  A
C3388      C3389   1.403       .  A
C3388      H3401   1.083       .  S
C3389      C3390   1.418       .  A
C3389      H3402   1.078       .  S
C3390      C3396   1.431       .  A
C3390      C3391   1.422   1_545  A
C3391      C3393   1.397       .  A
C3391      C3392   1.397       .  A
C3392      H3403   1.085       .  S
C3393      C3394   1.384       .  A
C3393      H3404   1.084       .  S
C3394      C3395   1.397       .  A
C3394      H3405   1.084       .  S
C3395      C3396   1.423   1_565  A
C3395      C3400   1.397       .  A
C3396      C3397   1.418       .  A
C3397      C3398   1.403       .  A
C3397      H3406   1.078       .  S
C3398      C3399   1.398       .  A
C3398      H3407   1.083       .  S
C3399      C3400   1.397   1_545  A
C3400      H3408   1.085       .  S
C3409      C3410   1.400       .  A
C3409      C3414   1.399       .  A
C3410      C3411   1.397       .  A
C3410      H3423   1.083       .  S
C3411      C3412   1.415       .  A
C3411      H3424   1.077       .  S
C3412      C3418   1.429       .  A
C3412      C3413   1.423       .  A
C3413      C3415   1.399   1_565  A
C3413      C3414   1.403       .  A
C3414      H3425   1.085   1_565  S
C3415      C3416   1.388       .  A
C3415      H3426   1.084       .  S
C3416      C3417   1.398   1_545  A
C3416      H3427   1.084       .  S
C3417      C3418   1.422       .  A
C3417      C3422   1.401       .  A
C3418      C3419   1.416       .  A
C3419      C3420   1.397       .  A
C3419      H3428   1.077       .  S
C3420      C3421   1.399       .  A
C3420      H3429   1.083       .  S
C3421      C3422   1.399       .  A
C3422      H3430   1.085   1_565  S
C3431      C3432   1.400   1_545  A
C3431      C3436   1.405       .  A
C3432      C3433   1.390   1_565  A
C3432      H3445   1.083       .  S
C3433      C3434   1.412       .  A
C3433      H3446   1.078   1_545  S
C3434      C3440   1.426       .  A
C3434      C3435   1.421       .  A
C3435      C3437   1.402       .  A
C3435      C3436   1.413       .  A
C3436      H3447   1.084       .  S
C3437      C3438   1.397       .  A
C3437      H3448   1.084       .  S
C3438      C3439   1.403       .  A
C3438      H3449   1.084       .  S
C3439      C3440   1.420       .  A
C3439      C3444   1.414       .  A
C3440      C3441   1.407       .  A
C3441      C3442   1.388       .  A
C3441      H3450   1.078       .  S
C3442      C3443   1.411       .  A
C3442      H3451   1.083       .  S
C3443      C3444   1.414       .  A
C3444      H3452   1.081       .  S
C3453      C3454   1.398       .  A
C3453      C3458   1.402       .  A
C3454      C3455   1.394       .  A
C3454      H3467   1.083       .  S
C3455      C3456   1.415       .  A
C3455      H3468   1.077       .  S
C3456      C3462   1.429       .  A
C3456      C3457   1.422       .  A
C3457      C3459   1.401       .  A
C3457      C3458   1.407       .  A
C3458      H3469   1.085       .  S
C3459      C3460   1.392       .  A
C3459      H3470   1.084       .  S
C3460      C3461   1.400       .  A
C3460      H3471   1.084       .  S
C3461      C3462   1.424       .  A
C3461      C3466   1.410       .  A
C3462      C3463   1.413       .  A
C3463      C3464   1.392       .  A
C3463      H3472   1.077       .  S
C3464      C3465   1.399       .  A
C3464      H3473   1.083       .  S
C3465      C3466   1.402       .  A
C3466      H3474   1.084       .  S
C3475      C3476   1.399   1_655  A
C3475      C3480   1.400       .  A
C3476      C3477   1.396       .  A
C3476      H3489   1.083       .  S
C3477      C3478   1.416   1_455  A
C3477      H3490   1.077       .  S
C3478      C3484   1.428       .  A
C3478      C3479   1.422       .  A
C3479      C3481   1.399       .  A
C3479      C3480   1.402       .  A
C3480      H3491   1.085       .  S
C3481      C3482   1.388       .  A
C3481      H3492   1.084       .  S
C3482      C3483   1.399       .  A
C3482      H3493   1.084       .  S
C3483      C3484   1.423       .  A
C3483      C3488   1.402       .  A
C3484      C3485   1.415   1_655  A
C3485      C3486   1.395   1_455  A
C3485      H3494   1.077       .  S
C3486      C3487   1.399       .  A
C3486      H3495   1.083   1_655  S
C3487      C3488   1.400       .  A
C3488      H3496   1.085       .  S
C3497      C3498   1.402       .  A
C3497      C3502   1.400       .  A
C3498      C3499   1.396       .  A
C3498      H3511   1.084       .  S
C3499      C3500   1.412       .  A
C3499      H3512   1.078       .  S
C3500      C3506   1.428       .  A
C3500      C3501   1.424       .  A
C3501      C3503   1.399       .  A
C3501      C3502   1.405       .  A
C3502      H3513   1.084       .  S
C3503      C3504   1.389       .  A
C3503      H3514   1.083       .  S
C3504      C3505   1.400       .  A
C3504      H3515   1.084       .  S
C3505      C3506   1.417       .  A
C3505      C3510   1.400       .  A
C3506      C3507   1.415       .  A
C3507      C3508   1.400       .  A
C3507      H3516   1.078       .  S
C3508      C3509   1.406       .  A
C3508      H3517   1.082       .  S
C3509      C3510   1.412       .  A
C3510      H3518   1.083       .  S
C3519      C3520   1.398       .  A
C3519      C3524   1.402       .  A
C3520      C3521   1.392       .  A
C3520      H3533   1.084       .  S
C3521      C3522   1.414       .  A
C3521      H3534   1.077       .  S
C3522      C3528   1.427       .  A
C3522      C3523   1.423       .  A
C3523      C3525   1.401       .  A
C3523      C3524   1.409       .  A
C3524      H3535   1.085       .  S
C3525      C3526   1.394       .  A
C3525      H3536   1.084       .  S
C3526      C3527   1.401       .  A
C3526      H3537   1.084       .  S
C3527      C3528   1.421       .  A
C3527      C3532   1.409       .  A
C3528      C3529   1.413       .  A
C3529      C3530   1.393       .  A
C3529      H3538   1.078       .  S
C3530      C3531   1.400       .  A
C3530      H3539   1.083       .  S
C3531      C3532   1.404       .  A
C3532      H3540   1.084       .  S
C3541      C3542   1.400       .  A
C3541      C3546   1.401       .  A
C3542      C3543   1.395       .  A
C3542      H3555   1.083       .  S
C3543      C3544   1.415       .  A
C3543      H3556   1.077       .  S
C3544      C3550   1.430       .  A
C3544      C3545   1.423       .  A
C3545      C3547   1.400       .  A
C3545      C3546   1.406       .  A
C3546      H3557   1.084       .  S
C3547      C3548   1.391       .  A
C3547      H3558   1.084       .  S
C3548      C3549   1.400       .  A
C3548      H3559   1.084       .  S
C3549      C3550   1.423       .  A
C3549      C3554   1.407       .  A
C3550      C3551   1.414       .  A
C3551      C3552   1.395       .  A
C3551      H3560   1.077       .  S
C3552      C3553   1.400       .  A
C3552      H3561   1.083       .  S
C3553      C3554   1.402       .  A
C3554      H3562   1.084       .  S
C3563      C3564   1.400       .  A
C3563      C3568   1.402       .  A
C3564      C3565   1.401       .  A
C3564      H3577   1.083       .  S
C3565      C3566   1.417       .  A
C3565      H3578   1.078       .  S
C3566      C3572   1.431       .  A
C3566      C3567   1.421       .  A
C3567      C3569   1.399       .  A
C3567      C3568   1.402       .  A
C3568      H3579   1.085       .  S
C3569      C3570   1.388       .  A
C3569      H3580   1.084       .  S
C3570      C3571   1.399       .  A
C3570      H3581   1.084       .  S
C3571      C3572   1.419       .  A
C3571      C3576   1.400       .  A
C3572      C3573   1.413       .  A
C3573      C3574   1.400       .  A
C3573      H3582   1.078       .  S
C3574      C3575   1.410       .  A
C3574      H3583   1.078       .  S
C3575      C3576   1.413       .  A
C3576      H3584   1.084       .  S
C3585      C3586   1.399       .  A
C3585      C3590   1.404       .  A
C3586      C3587   1.395       .  A
C3586      H3599   1.084       .  S
C3587      C3588   1.415       .  A
C3587      H3600   1.077       .  S
C3588      C3594   1.431       .  A
C3588      C3589   1.422       .  A
C3589      C3591   1.401       .  A
C3589      C3590   1.409       .  A
C3590      H3601   1.084       .  S
C3591      C3592   1.394       .  A
C3591      H3602   1.084       .  S
C3592      C3593   1.401       .  A
C3592      H3603   1.084       .  S
C3593      C3594   1.424       .  A
C3593      C3598   1.413       .  A
C3594      C3595   1.412       .  A
C3595      C3596   1.392       .  A
C3595      H3604   1.077       .  S
C3596      C3597   1.400       .  A
C3596      H3605   1.084       .  S
C3597      C3598   1.402       .  A
C3598      H3606   1.084       .  S
C3607      C3608   1.398       .  A
C3607      C3612   1.400       .  A
C3608      C3609   1.391       .  A
C3608      H3621   1.083       .  S
C3609      C3610   1.413       .  A
C3609      H3622   1.077       .  S
C3610      C3616   1.425       .  A
C3610      C3611   1.422       .  A
C3611      C3613   1.399       .  A
C3611      C3612   1.403       .  A
C3612      H3623   1.084       .  S
C3613      C3614   1.390       .  A
C3613      H3624   1.084       .  S
C3614      C3615   1.400       .  A
C3614      H3625   1.084       .  S
C3615      C3616   1.422       .  A
C3615      C3620   1.404       .  A
C3616      C3617   1.413       .  A
C3617      C3618   1.391       .  A
C3617      H3626   1.077       .  S
C3618      C3619   1.398       .  A
C3618      H3627   1.083       .  S
C3619      C3620   1.401       .  A
C3620      H3628   1.084       .  S
C3629      C3630   1.400       .  A
C3629      C3634   1.400       .  A
C3630      C3631   1.399       .  A
C3630      H3643   1.083       .  S
C3631      C3632   1.416       .  A
C3631      H3644   1.077       .  S
C3632      C3638   1.430       .  A
C3632      C3633   1.422       .  A
C3633      C3635   1.398       .  A
C3633      C3634   1.401       .  A
C3634      H3645   1.085       .  S
C3635      C3636   1.387       .  A
C3635      H3646   1.084       .  S
C3636      C3637   1.398       .  A
C3636      H3647   1.084       .  S
C3637      C3638   1.423       .  A
C3637      C3642   1.401       .  A
C3638      C3639   1.416       .  A
C3639      C3640   1.399       .  A
C3639      H3648   1.077       .  S
C3640      C3641   1.400       .  A
C3640      H3649   1.083       .  S
C3641      C3642   1.400       .  A
C3642      H3650   1.085       .  S
C3651      C3652   1.400       .  A
C3651      C3656   1.402       .  A
C3652      C3653   1.402       .  A
C3652      H3665   1.083       .  S
C3653      C3654   1.418       .  A
C3653      H3666   1.078       .  S
C3654      C3660   1.431       .  A
C3654      C3655   1.421       .  A
C3655      C3657   1.399       .  A
C3655      C3656   1.401       .  A
C3656      H3667   1.085       .  S
C3657      C3658   1.388       .  A
C3657      H3668   1.084       .  S
C3658      C3659   1.399       .  A
C3658      H3669   1.084       .  S
C3659      C3660   1.418       .  A
C3659      C3664   1.402       .  A
C3660      C3661   1.410       .  A
C3661      C3662   1.400       .  A
C3661      H3670   1.078       .  S
C3662      C3663   1.414       .  A
C3662      H3671   1.075       .  S
C3663      C3664   1.414       .  A
C3664      H3672   1.084       .  S
