geometry optimzed in LAMMPS
_audit_creation_date              2020-12-01 
_audit_creation_method            'lammps2cif' 
_symmetry_space_group_name_H-M    'P1' 
_symmetry_Int_Tables_number       1 
_symmetry_cell_setting            triclinic 
loop_ 
_symmetry_equiv_pos_as_xyz 
  x,y,z 
_cell_length_a                    34.80970273 
_cell_length_b                    34.77177808428427 
_cell_length_c                    34.82775135837663 
_cell_angle_alpha                 90.0506170563014 
_cell_angle_beta                  89.99385980889808 
_cell_angle_gamma                 90.04150721492475 
loop_ 
_atom_site_label 
_atom_site_type_symbol 
_atom_site_fract_x 
_atom_site_fract_y 
_atom_site_fract_z 
_atom_site_charge 
O1          O  0.21346397  0.62177104  0.50158175    -0.82300
C2          C  0.10753742  0.56971391  0.61191211     0.97100
O3          O  0.12800560  0.59985249  0.61730373    -0.71400
O4          O  0.20127520  0.58158537  0.60544939    -0.75000
Al5        Al  0.17012052  0.62080539  0.58438145     1.49000
C6          C  0.22808828  0.56388303  0.58867167     0.92400
O7          O  0.17697215  0.52199327  0.51924902    -0.81200
O8          O  0.11045793  0.60931735  0.48774357    -0.74700
Al9        Al  0.19310001  0.57354048  0.51278944     1.90100
O10         O  0.11606017  0.53359231  0.50917296    -0.73800
O11         O  0.08812360  0.62998111  0.55516319    -0.73700
O12         O  0.10322104  0.55598679  0.57892054    -0.79300
O13         O  0.13955295  0.66400253  0.56759293    -0.77500
O14         O  0.15749807  0.59253007  0.54377524    -1.13700
O15         O  0.21591019  0.64550450  0.55983924    -0.72800
C16         C  0.22834824  0.64434278  0.52532772     0.97900
C17         C  0.14436279  0.51080336  0.50858452     0.94300
Al18       Al  0.10844547  0.58301093  0.53386693     1.55600
O19         O  0.23018586  0.56373858  0.55240023    -0.77500
C20         C  0.10384023  0.66231482  0.56078859     0.98400
C21         C  0.13220133  0.59847637  0.46128076     0.93300
O22         O  0.16287840  0.57990135  0.46746808    -0.82800
O23         O  0.11727907  0.52187115  0.25945548    -0.82300
C24         C  0.17483271  0.63449144  0.15985767     0.97100
O25         O  0.14415594  0.61568268  0.15207134    -0.71400
O26         O  0.15969384  0.54171574  0.15929528    -0.75000
Al27       Al  0.12041890  0.57241325  0.18089590     1.49000
C28         C  0.17800543  0.51463288  0.17486848     0.92400
O29         O  0.21681889  0.56019843  0.24856766    -0.81200
O30         O  0.12806073  0.62450543  0.28136512    -0.74700
Al31       Al  0.16516539  0.54352940  0.25196584     1.90100
O32         O  0.20464134  0.61933778  0.26523749    -0.73800
O33         O  0.11308429  0.65265214  0.21407272    -0.73700
O34         O  0.18720088  0.63660735  0.19377424    -0.79300
O35         O  0.07707287  0.60381245  0.19770497    -0.77500
O36         O  0.14735333  0.58144175  0.22325268    -1.13700
O37         O  0.09377497  0.52561815  0.20120934    -0.72800
C38         C  0.09495590  0.50959675  0.23420628     0.97900
C39         C  0.22745502  0.59114420  0.26361562     0.94300
Al40       Al  0.15745357  0.62946267  0.23720675     1.55600
O41         O  0.17709804  0.50993501  0.21073085    -0.77500
C42         C  0.08031838  0.63930310  0.20581804     0.98400
C43         C  0.13417799  0.59865648  0.30578372     0.93300
O44         O  0.15534896  0.56981349  0.29878844    -0.82800
O45         O  0.25550231  0.09914002  0.53145779    -0.82300
C46         C  0.16487004  0.16044575  0.64904191     0.97100
O47         O  0.15469323  0.13030075  0.63039812    -0.71400
O48         O  0.15872742  0.14286731  0.55569967    -0.75000
Al49       Al  0.18046380  0.10390832  0.58682857     1.49000
C50         C  0.17378885  0.16234150  0.52917904     0.92400
O51         O  0.25259442  0.19796461  0.57202372    -0.81200
O52         O  0.28280022  0.10669984  0.63369805    -0.74700
Al53       Al  0.25197137  0.14643322  0.55455523     1.90100
O54         O  0.27170815  0.18423858  0.62978725    -0.73800
O55         O  0.21644851  0.09595521  0.66597899    -0.73700
O56         O  0.19952655  0.17100931  0.65004056    -0.79300
O57         O  0.19642852  0.06067319  0.61824727    -0.77500
O58         O  0.22424247  0.12941537  0.59361655    -1.13700
O59         O  0.19817699  0.07468037  0.54088510    -0.72800
C60         C  0.23020054  0.07517998  0.52305054     0.97900
C61         C  0.26952217  0.20765550  0.60220576     0.94300
Al62       Al  0.24097781  0.13872067  0.64090992     1.55600
O63         O  0.20961353  0.16172691  0.52383127    -0.77500
C64         C  0.20598098  0.06361571  0.65321818     0.98400
C65         C  0.30683539  0.11177324  0.60725482     0.93300
O66         O  0.29969577  0.13277299  0.57825189    -0.82800
O67         O  0.49713512  0.19764003  0.64558855    -0.82300
C68         C  0.61339671  0.10250294  0.58653113     0.97100
O69         O  0.61630493  0.12140920  0.61781643    -0.71400
O70         O  0.60059372  0.19550761  0.60124564    -0.75000
Al71       Al  0.58158948  0.16136181  0.63912599     1.49000
C72         C  0.58222429  0.22229586  0.58485161     0.92400
O73         O  0.51245461  0.17382831  0.54189281    -0.81200
O74         O  0.48979544  0.09455464  0.61947994    -0.74700
Al75       Al  0.50780240  0.18364381  0.59515224     1.90100
O76         O  0.51035808  0.11126588  0.54607331    -0.73800
O77         O  0.55849080  0.07786656  0.63991158    -0.73700
O78         O  0.58279741  0.10368807  0.56752763    -0.79300
O79         O  0.56587863  0.12633190  0.67991619    -0.77500
O80         O  0.54158071  0.14871038  0.60962852    -1.13700
O81         O  0.55585524  0.20515387  0.66596317    -0.72800
C82         C  0.52050865  0.21461681  0.66684816     0.97900
C83         C  0.50442124  0.14180350  0.52735157     0.94300
Al84       Al  0.53621028  0.10065558  0.59427149     1.55600
O85         O  0.54578501  0.22382925  0.58710629    -0.77500
C86         C  0.56250650  0.09027388  0.67400071     0.98400
C87         C  0.46150509  0.11582950  0.61331528     0.93300
O88         O  0.46485874  0.14964718  0.60013165    -0.82800
O89         O  0.64114120  0.48186365  0.20852837    -0.82300
C90         C  0.58111105  0.59688815  0.11280221     0.97100
O91         O  0.61304170  0.60000197  0.13050736    -0.71400
O92         O  0.59697513  0.58522771  0.20431638    -0.75000
Al93       Al  0.63469451  0.56560292  0.17040712     1.49000
C94         C  0.58069427  0.56710073  0.23131652     0.92400
O95         O  0.53744850  0.49658968  0.18352486    -0.81200
O96         O  0.61551091  0.47249894  0.10539140    -0.74700
Al97       Al  0.59061923  0.49214389  0.19379057     1.90100
O98         O  0.54205833  0.49402985  0.12104228    -0.73800
O99         O  0.63607683  0.54110529  0.08740594    -0.73700
O100        O  0.56370277  0.56532713  0.11192464    -0.79300
O101        O  0.67541682  0.54868416  0.13612935    -0.77500
O102        O  0.60521889  0.52541346  0.15838263    -1.13700
O103        O  0.66143029  0.54092075  0.21426004    -0.72800
C104        C  0.66234970  0.50592500  0.22475128     0.97900
C105        C  0.52290969  0.48903622  0.15143096     0.94300
Al106      Al  0.59039524  0.51911745  0.11029186     1.55600
O107        O  0.58240180  0.53064405  0.23305078    -0.77500
C108        C  0.67008816  0.54390822  0.10027904     0.98400
C109        C  0.60924627  0.44465694  0.12723167     0.93300
O110        O  0.59569869  0.44866223  0.16075636    -0.82800
O111        O  0.52788604  0.24069752  0.11464761    -0.82300
C112        C  0.64377270  0.14716835  0.17521018     0.97100
O113        O  0.62492273  0.13759106  0.14502220    -0.71400
O114        O  0.54937255  0.14291445  0.15772376    -0.75000
Al115      Al  0.58165135  0.16444103  0.11906467     1.49000
C116        C  0.52306752  0.15871243  0.17712611     0.92400
O117        O  0.56784476  0.23680622  0.21377566    -0.81200
O118        O  0.63157909  0.26512271  0.12342584    -0.74700
Al119      Al  0.55073427  0.23650468  0.16201129     1.90100
O120        O  0.62604457  0.25447900  0.20024632    -0.73800
O121        O  0.66146871  0.19765104  0.11368986    -0.73700
O122        O  0.64315077  0.18125448  0.18761826    -0.79300
O123        O  0.61443127  0.18066089  0.07604173    -0.77500
O124        O  0.58907698  0.20784008  0.14517736    -1.13700
O125        O  0.53598035  0.18309890  0.09026327    -0.72800
C126        C  0.51846007  0.21528957  0.09117427     0.97900
C127        C  0.59814588  0.25370678  0.22326791     0.94300
Al128      Al  0.63657903  0.22306329  0.15544838     1.55600
O129        O  0.51896187  0.19476383  0.17697504    -0.77500
C130        C  0.64974548  0.18886329  0.08057937     0.98400
C131        C  0.60562857  0.28981749  0.12798834     0.93300
O132        O  0.57597662  0.28350712  0.14841374    -0.82800
O133        O  0.72908113  0.85417077  0.50934551    -0.82300
C134        C  0.61081280  0.91123222  0.41629957     0.97100
O135        O  0.62985666  0.88104838  0.40732162    -0.71400
O136        O  0.70457939  0.89455363  0.41154899    -0.75000
Al137      Al  0.67330402  0.85603096  0.43415674     1.49000
C138        C  0.73094280  0.91456019  0.42632060     0.92400
O139        O  0.68737500  0.95305547  0.50329729    -0.81200
O140        O  0.62604823  0.86237813  0.53640800    -0.74700
Al141      Al  0.70523537  0.90133179  0.50432928     1.90100
O142        O  0.62959288  0.93900825  0.52207457    -0.73800
O143        O  0.59391147  0.84911869  0.46997739    -0.73700
O144        O  0.60989413  0.92342210  0.45040377    -0.79300
O145        O  0.64139242  0.81299584  0.45102615    -0.77500
O146        O  0.66627568  0.88298702  0.47703752    -1.13700
O147        O  0.71927406  0.82779891  0.45291023    -0.72800
C148        C  0.73762042  0.82961237  0.48456510     0.97900
C149        C  0.65705702  0.96259168  0.52015691     0.94300
Al150      Al  0.61884832  0.89270542  0.49312724     1.55600
O151        O  0.73592472  0.91512458  0.46208088    -0.77500
C152        C  0.60615479  0.81652986  0.45974529     0.98400
C153        C  0.65295379  0.86802057  0.55991470     0.93300
O154        O  0.68151551  0.88935749  0.55210986    -0.82800
O155        O  0.62119359  0.94663541  0.74980688    -0.82300
C156        C  0.67007371  0.84868234  0.86876336     0.97100
O157        O  0.63887979  0.86785397  0.87006280    -0.71400
O158        O  0.65851776  0.94044267  0.85553526    -0.75000
Al159      Al  0.62058811  0.90810057  0.83423205     1.49000
C160        C  0.67714276  0.96632147  0.83819195     0.92400
O161        O  0.72217673  0.91600192  0.77184181    -0.81200
O162        O  0.64179844  0.84158487  0.74266815    -0.74700
Al163      Al  0.67002565  0.92893714  0.76354037     1.90100
O164        O  0.71458607  0.85384906  0.76795653    -0.73800
O165        O  0.61721725  0.82476194  0.81047340    -0.73700
O166        O  0.68905869  0.84661886  0.83822269    -0.79300
O167        O  0.57942561  0.87508008  0.81611332    -0.77500
O168        O  0.65157291  0.89440643  0.79585248    -1.13700
O169        O  0.59703237  0.95282837  0.80733640    -0.72800
C170        C  0.59906719  0.96367020  0.77245378     0.97900
C171        C  0.73538223  0.88333255  0.76417610     0.94300
Al172      Al  0.66468792  0.84559528  0.79066779     1.55600
O173        O  0.67740448  0.96790733  0.80183272    -0.77500
C174        C  0.58369671  0.83888985  0.81259612     0.98400
C175        C  0.65118450  0.86299092  0.71529337     0.93300
O176        O  0.66622475  0.89581356  0.72018859    -0.82800
O177        O  0.24882481  0.88314609  0.04906952    -0.82300
C178        C  0.35815605  0.81469729  0.14610432     0.97100
O179        O  0.36347285  0.84679888  0.12905491    -0.71400
O180        O  0.34924267  0.83263327  0.05459957    -0.75000
Al181      Al  0.33110232  0.87093142  0.08825839     1.49000
C182        C  0.33074565  0.81790303  0.02700017     0.92400
O183        O  0.25685231  0.77818209  0.07123817    -0.81200
O184        O  0.23540085  0.85522680  0.15091177    -0.74700
Al185      Al  0.25575105  0.83176773  0.06240438     1.90100
O186        O  0.25472059  0.78116954  0.13388227    -0.73800
O187        O  0.30448578  0.87245687  0.17048399    -0.73700
O188        O  0.32574452  0.79910863  0.14529045    -0.79300
O189        O  0.31557175  0.91200735  0.12252700    -0.77500
O190        O  0.28905819  0.84355123  0.09882407    -1.13700
O191        O  0.30893091  0.89955718  0.04369042    -0.72800
C192        C  0.27414018  0.90263879  0.03279917     0.97900
C193        C  0.25011226  0.76269361  0.10302183     0.94300
Al194      Al  0.28098894  0.82811272  0.14636856     1.55600
O195        O  0.29460972  0.82201626  0.02405751    -0.77500
C196        C  0.30950757  0.90645317  0.15812726     0.98400
C197        C  0.20799730  0.85251032  0.12781471     0.93300
O198        O  0.21193726  0.83902290  0.09428126    -0.82800
O199        O  0.00790438  0.77498881  0.14503293    -0.82300
C200        C  0.90475135  0.88360693  0.08416993     0.97100
O201        O  0.89713249  0.86372512  0.11410093    -0.71400
O202        O  0.90808273  0.78932869  0.09826952    -0.75000
Al203      Al  0.92732675  0.82133759  0.13798840     1.49000
C204        C  0.92529694  0.76217333  0.08137963     0.92400
O205        O  0.99963113  0.80974297  0.04393939    -0.81200
O206        O  0.02712355  0.87820725  0.13046271    -0.74700
Al207      Al  0.00128463  0.79475946  0.09609207     1.90100
O208        O  0.00901280  0.87099334  0.05434909    -0.73800
O209        O  0.95885229  0.90269675  0.14663347    -0.73700
O210        O  0.93854489  0.88623337  0.07198136    -0.79300
O211        O  0.94192968  0.85317308  0.18147971    -0.77500
O212        O  0.97021665  0.83192731  0.11206429    -1.13700
O213        O  0.94845898  0.77568843  0.16553639    -0.72800
C214        C  0.98241092  0.76194597  0.16667145     0.97900
C215        C  0.00977810  0.84227930  0.03218171     0.94300
Al216      Al  0.98218822  0.88048072  0.10172197     1.55600
O217        O  0.96138834  0.75904392  0.08350913    -0.77500
C218        C  0.94998482  0.88868390  0.17894407     0.98400
C219        C  0.05282470  0.85347383  0.12533175     0.93300
O220        O  0.04696228  0.82301094  0.10627566    -0.82800
O221        O  0.36764386  0.98275012  0.29308450    -0.82300
C222        C  0.42365684  0.09039643  0.39952236     0.97100
O223        O  0.39293866  0.09616491  0.38018473    -0.71400
O224        O  0.40953722  0.08507166  0.30637702    -0.75000
Al225      Al  0.37067563  0.06423806  0.33808782     1.49000
C226        C  0.42762105  0.06863335  0.27957085     0.92400
O227        O  0.46825220  0.99635172  0.32778063    -0.81200
O228        O  0.38231803  0.96686424  0.39636622    -0.74700
Al229      Al  0.41618494  0.99209439  0.31266940     1.90100
O230        O  0.45771327  0.98643680  0.38877532    -0.73800
O231        O  0.36381448  0.03480248  0.41964491    -0.73700
O232        O  0.43780246  0.05732907  0.40211348    -0.79300
O233        O  0.32797092  0.04727331  0.36962818    -0.77500
O234        O  0.39872067  0.02296744  0.34916555    -1.13700
O235        O  0.34440350  0.04122805  0.29279501    -0.72800
C236        C  0.34470620  0.00694062  0.27983949     0.97900
C237        C  0.47980528  0.98531259  0.36005707     0.94300
Al238      Al  0.40956217  0.01252074  0.39774406     1.55600
O239        O  0.42704397  0.03235603  0.27638609    -0.77500
C240        C  0.33087432  0.04002578  0.40519251     0.98400
C241        C  0.39015714  0.94050681  0.37313994     0.93300
O242        O  0.40811167  0.94643528  0.34203858    -0.82800
O243        O  0.47253482  0.74070140  0.39261733    -0.82300
C244        C  0.36281379  0.63646293  0.33577186     0.97100
O245        O  0.38167396  0.63012354  0.36670930    -0.71400
O246        O  0.45674251  0.63864598  0.35340208    -0.75000
Al247      Al  0.42349637  0.66082657  0.39079541     1.49000
C248        C  0.48322617  0.65442139  0.33427097     0.92400
O249        O  0.43657202  0.72777788  0.29245532    -0.81200
O250        O  0.36792785  0.75884500  0.37795121    -0.74700
Al251      Al  0.45170852  0.73174338  0.34462701     1.90100
O252        O  0.37648241  0.74144998  0.30243989    -0.73800
O253        O  0.34177235  0.69085933  0.39397128    -0.73700
O254        O  0.36226198  0.66931998  0.32073614    -0.79300
O255        O  0.38967888  0.67770405  0.43231332    -0.77500
O256        O  0.41420690  0.70215079  0.36211353    -1.13700
O257        O  0.46824915  0.68370010  0.41895982    -0.72800
C258        C  0.48344743  0.71713765  0.41729973     0.97900
C259        C  0.40540108  0.74123379  0.28062031     0.94300
Al260      Al  0.36612982  0.71385015  0.34976052     1.55600
O261        O  0.48637523  0.69063672  0.33357823    -0.77500
C262        C  0.35397552  0.68363959  0.42741090     0.98400
C263        C  0.39281932  0.78436354  0.37229053     0.93300
O264        O  0.42361203  0.77807871  0.35373711    -0.82800
O265        O  0.50528382  0.70570121  0.87072146    -0.82300
C266        C  0.39992807  0.59658385  0.92453655     0.97100
O267        O  0.39434169  0.61576536  0.89373585    -0.71400
O268        O  0.40205018  0.69024908  0.90970015    -0.75000
Al269      Al  0.42496294  0.65841636  0.87173853     1.49000
C270        C  0.41748293  0.71765646  0.92781015     0.92400
O271        O  0.48844854  0.67230111  0.97100491    -0.81200
O272        O  0.52344549  0.60363171  0.88652964    -0.74700
Al273      Al  0.49470466  0.68678877  0.91894899     1.90100
O274        O  0.50360728  0.61231797  0.96139772    -0.73800
O275        O  0.45621931  0.57740898  0.86812188    -0.73700
O276        O  0.43211886  0.59666254  0.94095579    -0.79300
O277        O  0.44318105  0.62572373  0.82999269    -0.77500
O278        O  0.46575400  0.64910897  0.90100624    -1.13700
O279        O  0.44771011  0.70413156  0.84540373    -0.72800
C280        C  0.48156121  0.71823277  0.84702953     0.97900
C281        C  0.50306470  0.64162213  0.98285546     0.94300
Al282      Al  0.47754819  0.60124577  0.91337411     1.55600
O283        O  0.45352737  0.72192947  0.92763205    -0.77500
C284        C  0.44963851  0.59002661  0.83466109     0.98400
C285        C  0.54851884  0.62866485  0.89345951     0.93300
O286        O  0.54140062  0.65894451  0.91246801    -0.82800
O287        O  0.74741144  0.60387889  0.96862581    -0.82300
C288        C  0.85439508  0.66397382  0.86390503     0.97100
O289        O  0.85904249  0.63198243  0.88134137    -0.71400
O290        O  0.85074046  0.64419287  0.95670016    -0.75000
Al291      Al  0.82784325  0.60812246  0.92245331     1.49000
C292        C  0.83497127  0.66128679  0.98463514     0.92400
O293        O  0.76335709  0.70682042  0.94225770    -0.81200
O294        O  0.73059103  0.62790967  0.86685287    -0.74700
Al295      Al  0.75780240  0.65355537  0.95294375     1.90100
O296        O  0.75082819  0.70127269  0.88131161    -0.73800
O297        O  0.79798703  0.61018560  0.84113578    -0.73700
O298        O  0.82287498  0.68160794  0.86585517    -0.79300
O299        O  0.80887191  0.56870274  0.88716281    -0.77500
O300        O  0.78739186  0.63834864  0.91461878    -1.13700
O301        O  0.80511796  0.57919297  0.96632768    -0.72800
C302        C  0.77116581  0.57959869  0.98003145     0.97900
C303        C  0.74934108  0.72042653  0.91206204     0.94300
Al304      Al  0.77681756  0.65417574  0.86754778     1.55600
O305        O  0.79887799  0.66043879  0.98876015    -0.77500
C306        C  0.80306927  0.57570226  0.85173995     0.98400
C307        C  0.70492352  0.63307400  0.89161598     0.93300
O308        O  0.71150452  0.64856801  0.92393352    -0.82800
O309        O  0.27849491  0.35578596  0.00157856    -0.82300
C310        C  0.39476198  0.40826161  0.09886522     0.97100
O311        O  0.37437531  0.37874207  0.10761424    -0.71400
O312        O  0.29972454  0.39348905  0.10103854    -0.75000
Al313      Al  0.33096163  0.35451456  0.07895371     1.49000
C314        C  0.27476201  0.41450915  0.08536523     0.92400
O315        O  0.32314648  0.45197540  0.01152587    -0.81200
O316        O  0.38159751  0.35926414  0.97878170    -0.74700
Al317      Al  0.30338364  0.40154349  0.00838814     1.90100
O318        O  0.38052345  0.43626914  0.99268099    -0.73800
O319        O  0.41121599  0.34529247  0.04566255    -0.73700
O320        O  0.39756513  0.41967166  0.06464446    -0.79300
O321        O  0.36183381  0.31079272  0.06263935    -0.77500
O322        O  0.34050321  0.38150041  0.03670048    -1.13700
O323        O  0.28507263  0.32746513  0.05753272    -0.72800
C324        C  0.26866076  0.33039356  0.02484369     0.97900
C325        C  0.35384181  0.46067355  0.99508674     0.94300
Al326      Al  0.38872912  0.38945540  0.02195626     1.55600
O327        O  0.27155033  0.41585078  0.04946814    -0.77500
C328        C  0.39715630  0.31302161  0.05420594     0.98400
C329        C  0.35610747  0.36663445  0.95432700     0.93300
O330        O  0.32832153  0.38926142  0.96121645    -0.82800
O331        O  0.39395591  0.44601695  0.76154495    -0.82300
C332        C  0.33208430  0.34932382  0.64750982     0.97100
O333        O  0.36416624  0.36682506  0.64475596    -0.71400
O334        O  0.34752372  0.44165056  0.65843574    -0.75000
Al335      Al  0.38513678  0.40805208  0.67851343     1.49000
C336        C  0.33199370  0.46923311  0.67649177     0.92400
O337        O  0.28891262  0.42634462  0.74794470    -0.81200
O338        O  0.36089412  0.34385287  0.77193834    -0.74700
Al339      Al  0.34250128  0.43373232  0.75175377     1.90100
O340        O  0.28913106  0.36353096  0.74836987    -0.73800
O341        O  0.38405393  0.32561534  0.70457459    -0.73700
O342        O  0.31256025  0.35267683  0.67752727    -0.79300
O343        O  0.42493719  0.37343787  0.69634469    -0.77500
O344        O  0.35515676  0.39735674  0.71875213    -1.13700
O345        O  0.41220337  0.45293126  0.70226815    -0.72800
C346        C  0.41400274  0.46328078  0.73729718     0.97900
C347        C  0.27211090  0.39510942  0.75431340     0.94300
Al348      Al  0.33782869  0.35009794  0.72473454     1.55600
O349        O  0.33568080  0.47256061  0.71267187    -0.77500
C350        C  0.41848839  0.33762287  0.70101035     0.98400
C351        C  0.35676249  0.36650221  0.79948146     0.93300
O352        O  0.34614862  0.40103352  0.79530187    -0.82800
O353        O  0.04139071  0.23688928  0.89064021    -0.82300
C354        C  0.13977313  0.34947882  0.82922265     0.97100
O355        O  0.12114168  0.35432476  0.86049936    -0.71400
O356        O  0.04733997  0.33869630  0.84447914    -0.75000
Al357      Al  0.08064679  0.32047738  0.88320892     1.49000
C358        C  0.02051503  0.32018227  0.82834005     0.92400
O359        O  0.07065466  0.24822603  0.78763109    -0.81200
O360        O  0.14521838  0.22630795  0.86997536    -0.74700
Al361      Al  0.05815293  0.24552864  0.84062835     1.90100
O362        O  0.13287711  0.24554113  0.79535197    -0.73800
O363        O  0.16349377  0.29583851  0.88798694    -0.73700
O364        O  0.14185938  0.31678857  0.81424910    -0.79300
O365        O  0.11379690  0.30526028  0.92542055    -0.77500
O366        O  0.09326442  0.27920523  0.85553268    -1.13700
O367        O  0.03642684  0.29636982  0.91017949    -0.72800
C368        C  0.02568794  0.26141117  0.91167590     0.97900
C369        C  0.10352279  0.24087513  0.77466007     0.94300
Al370      Al  0.14188395  0.27200724  0.84286109     1.55600
O371        O  0.01924946  0.28373463  0.83007410    -0.77500
C372        C  0.14965530  0.29978584  0.92142366     0.98400
C373        C  0.12336713  0.19832588  0.86395402     0.93300
O374        O  0.09063233  0.20199927  0.84849880    -0.82800
O375        O  0.14571567  0.99257298  0.78576464    -0.82300
C376        C  0.08222785  0.89929586  0.90019012     0.97100
O377        O  0.11255627  0.88937065  0.88180677    -0.71400
O378        O  0.09992759  0.89494229  0.80690502    -0.75000
Al379      Al  0.13900096  0.91587736  0.83862987     1.49000
C380        C  0.08185352  0.91051411  0.77965870     0.92400
O381        O  0.04533433  0.98864790  0.82343344    -0.81200
O382        O  0.13538339  0.01780271  0.88789293    -0.74700
Al383      Al  0.09755908  0.98836265  0.80713382     1.90100
O384        O  0.05839000  0.00618035  0.88191801    -0.73800
O385        O  0.14550054  0.95024481  0.91815676    -0.73700
O386        O  0.07110383  0.93377207  0.90041554    -0.79300
O387        O  0.18227825  0.93132837  0.87110032    -0.77500
O388        O  0.11365426  0.95973289  0.84585348    -1.13700
O389        O  0.16807885  0.93403578  0.79266710    -0.72800
C390        C  0.16825942  0.96658629  0.77570751     0.97900
C391        C  0.03547425  0.00521578  0.85387632     0.94300
Al392      Al  0.10343936  0.97539856  0.89316805     1.55600
O393        O  0.08330479  0.94645959  0.77475283    -0.77500
C394        C  0.17823551  0.94016224  0.90627425     0.98400
C395        C  0.13002509  0.04257672  0.86218542     0.93300
O396        O  0.11024052  0.03566442  0.83230161    -0.82800
O397        O  0.97748753  0.73858177  0.61664642    -0.82300
C398        C  0.86148604  0.83000943  0.67923131     0.97100
O399        O  0.88049044  0.84072241  0.64954734    -0.71400
O400        O  0.95535833  0.83573131  0.66336797    -0.75000
Al401      Al  0.92442002  0.81498644  0.62345091     1.49000
C402        C  0.98270433  0.81998450  0.68118401     0.92400
O403        O  0.93831441  0.74222739  0.71596158    -0.81200
O404        O  0.87684683  0.71275840  0.62393980    -0.74700
Al405      Al  0.95562443  0.74245298  0.66447767     1.90100
O406        O  0.88015306  0.72376315  0.70180370    -0.73800
O407        O  0.84534851  0.77933963  0.61382045    -0.73700
O408        O  0.86015235  0.79520909  0.68902531    -0.79300
O409        O  0.89351478  0.79954347  0.57933685    -0.77500
O410        O  0.91694061  0.77089374  0.64799345    -1.13700
O411        O  0.97085048  0.79742186  0.59494873    -0.72800
C412        C  0.98755321  0.76476340  0.59435147     0.97900
C413        C  0.90741318  0.72643114  0.72556618     0.94300
Al414      Al  0.86949042  0.75431008  0.65645172     1.55600
O415        O  0.98771437  0.78412866  0.67931087    -0.77500
C416        C  0.85861695  0.78932603  0.58163784     0.98400
C417        C  0.90330036  0.68875060  0.62895146     0.93300
O418        O  0.93130651  0.69522311  0.65136980    -0.82800
O419        O  0.86316177  0.49909620  0.71047886    -0.82300
C420        C  0.91762213  0.38204197  0.61309766     0.97100
O421        O  0.88547506  0.38026557  0.63077142    -0.71400
O422        O  0.90048885  0.39235903  0.70573107    -0.75000
Al423      Al  0.86493629  0.41507977  0.67146085     1.49000
C424        C  0.91721578  0.40892539  0.73342379     0.92400
O425        O  0.96612860  0.47575981  0.68941146    -0.81200
O426        O  0.89219793  0.50725674  0.60931657    -0.74700
Al427      Al  0.91312728  0.48482553  0.69772965     1.90100
O428        O  0.96381364  0.48214537  0.62716348    -0.73800
O429        O  0.86806748  0.44061037  0.58895576    -0.73700
O430        O  0.93822858  0.41148520  0.61604324    -0.79300
O431        O  0.82649493  0.43454162  0.63616837    -0.77500
O432        O  0.89729837  0.45341475  0.66121029    -1.13700
O433        O  0.83827392  0.44166907  0.71521645    -0.72800
C434        C  0.83928054  0.47690962  0.72556662     0.97900
C435        C  0.98193605  0.48532000  0.65848852     0.94300
Al436      Al  0.91441940  0.45945892  0.61400139     1.55600
O437        O  0.91636151  0.44531508  0.73657746    -0.77500
C438        C  0.83346873  0.43797839  0.60043008     0.98400
C439        C  0.90022636  0.53438947  0.63149162     0.93300
O440        O  0.91296983  0.52921230  0.66520322    -0.82800
O441        O  0.00188760  0.26252183  0.36894607    -0.82300
C442        C  0.09015595  0.38200348  0.42844178     0.97100
O443        O  0.10192803  0.36213568  0.39974701    -0.71400
O444        O  0.09703783  0.28749904  0.41290482    -0.75000
Al445      Al  0.07681462  0.31852122  0.37296121     1.49000
C446        C  0.08154069  0.26160670  0.43288339     0.92400
O447        O  0.00285150  0.30764947  0.46578936    -0.81200
O448        O  0.97359759  0.36454251  0.37064196    -0.74700
Al449      Al  0.00425277  0.28765200  0.41514418     1.90100
O450        O  0.98275811  0.36418090  0.44862596    -0.73800
O451        O  0.04046345  0.39746576  0.36128179    -0.73700
O452        O  0.05493328  0.38437290  0.43654782    -0.79300
O453        O  0.06361092  0.34966100  0.32830022    -0.77500
O454        O  0.03222043  0.32612183  0.39683905    -1.13700
O455        O  0.05905960  0.27257419  0.34399160    -0.72800
C456        C  0.02724146  0.25432412  0.34495578     0.97900
C457        C  0.98485510  0.33784925  0.47348680     0.94300
Al458      Al  0.01471577  0.37363815  0.40363572     1.55600
O459        O  0.04570109  0.25714571  0.43247571    -0.77500
C460        C  0.05364796  0.38463966  0.33012206     0.98400
C461        C  0.94970763  0.33806296  0.37688400     0.93300
O462        O  0.95686561  0.31051046  0.39972177    -0.82800
O463        O  0.75777277  0.37656082  0.45963705    -0.82300
C464        C  0.64132497  0.32311126  0.36101351     0.97100
O465        O  0.63883808  0.35457000  0.37982729    -0.71400
O466        O  0.65160181  0.33760800  0.45468379    -0.75000
Al467      Al  0.67353673  0.37466173  0.42070326     1.49000
C468        C  0.66889703  0.32083051  0.48195349     0.92400
O469        O  0.73560513  0.27381877  0.43433072    -0.81200
O470        O  0.76680535  0.35154984  0.35736738    -0.74700
Al471      Al  0.74421835  0.32668856  0.44485427     1.90100
O472        O  0.74147668  0.27899134  0.37213822    -0.73800
O473        O  0.69921968  0.37467902  0.33812909    -0.73700
O474        O  0.67153851  0.30361294  0.36218859    -0.79300
O475        O  0.69209401  0.41483595  0.38632210    -0.77500
O476        O  0.71243862  0.34342676  0.40911255    -1.13700
O477        O  0.69987716  0.40037631  0.46472578    -0.72800
C478        C  0.73495356  0.39950933  0.47532823     0.97900
C479        C  0.74409342  0.25927904  0.40242495     0.94300
Al480      Al  0.71885315  0.32833174  0.36121217     1.55600
O481        O  0.70529134  0.32154818  0.48388743    -0.77500
C482        C  0.69652285  0.40887464  0.35049203     0.98400
C483        C  0.79396216  0.34235075  0.37909706     0.93300
O484        O  0.78849937  0.32839397  0.41226310    -0.82800
O485        O  0.88772524  0.01978774  0.25237081    -0.82300
C486        C  0.82907130  0.13515761  0.34794496     0.97100
O487        O  0.85878492  0.11554257  0.35720208    -0.71400
O488        O  0.84399655  0.04156992  0.35012089    -0.75000
Al489      Al  0.88359594  0.07215130  0.32962153     1.49000
C490        C  0.82509240  0.01505864  0.33431214     0.92400
O491        O  0.78942005  0.06137544  0.25729053    -0.81200
O492        O  0.88102083  0.12287887  0.22876086    -0.74700
Al493      Al  0.84052709  0.04321794  0.25717994     1.90100
O494        O  0.80383348  0.12046010  0.24215033    -0.73800
O495        O  0.89412301  0.15221270  0.29593186    -0.73700
O496        O  0.81863175  0.13807780  0.31351109    -0.79300
O497        O  0.92750600  0.10251798  0.31437338    -0.77500
O498        O  0.85821481  0.08114519  0.28629421    -1.13700
O499        O  0.91122483  0.02588936  0.31045869    -0.72800
C500        C  0.91078027  0.00938936  0.27774563     0.97900
C501        C  0.77999057  0.09316824  0.24331060     0.94300
Al502      Al  0.85009012  0.12938088  0.27150599     1.55600
O503        O  0.82546320  0.01088324  0.29836078    -0.77500
C504        C  0.92595230  0.13775384  0.30553553     0.98400
C505        C  0.87505555  0.09710056  0.20419255     0.93300
O506        O  0.85354387  0.06839370  0.21068084    -0.82800
O507        O  0.79215700  0.12912403  0.00946185    -0.82300
C508        C  0.89639396  0.07304125  0.89882252     0.97100
O509        O  0.87687186  0.10388094  0.89462484    -0.71400
O510        O  0.80259250  0.08607767  0.90635022    -0.75000
Al511      Al  0.83460533  0.12472022  0.92715438     1.49000
C512        C  0.77554494  0.06887772  0.92346028     0.92400
O513        O  0.82165841  0.02640904  0.99436325    -0.81200
O514        O  0.89535535  0.10813239  0.02231496    -0.74700
Al515      Al  0.80930209  0.07939951  0.99925848     1.90100
O516        O  0.88350699  0.03354668  0.00146084    -0.73800
O517        O  0.91635999  0.12796791  0.95458264    -0.73700
O518        O  0.89510119  0.05484520  0.92989809    -0.79300
O519        O  0.86743040  0.16653849  0.94474422    -0.77500
O520        O  0.84563545  0.09553935  0.96768123    -1.13700
O521        O  0.78902955  0.15064812  0.95064426    -0.72800
C522        C  0.77698275  0.15086585  0.98522420     0.97900
C523        C  0.85364366  0.01310242  0.00436687     0.94300
Al524      Al  0.89375144  0.08208219  0.97608016     1.55600
O525        O  0.77214802  0.07072097  0.95964035    -0.77500
C526        C  0.90330909  0.16169789  0.94999323     0.98400
C527        C  0.87278989  0.10058371  0.04923058     0.93300
O528        O  0.84023060  0.08518198  0.04398128    -0.82800
C529        C  0.88197957  0.13737539  0.14776138    -0.21800
C530        C  0.88950003  0.10230555  0.16603587    -0.09800
C531        C  0.90086528  0.06991977  0.14505671     0.29100
C532        C  0.89964277  0.07131685  0.10550508    -0.21800
C533        C  0.88645160  0.10461652  0.08751881    -0.09800
C534        C  0.87970242  0.13838759  0.10806748     0.29100
F535        F  0.86667155  0.17053387  0.09022933    -0.20300
H536        H  0.87296464  0.16234831  0.16408387     0.17400
H537        H  0.90510399  0.04535612  0.08911093     0.17400
F538        F  0.90848750  0.03595120  0.16272861    -0.20300
C539        C  0.80323050  0.22082279  0.40660952    -0.21800
C540        C  0.76334745  0.22176644  0.40061065    -0.09800
C541        C  0.74485307  0.18939092  0.38541777     0.29100
C542        C  0.76666993  0.15781654  0.37324479    -0.21800
C543        C  0.80710574  0.15851025  0.37554760    -0.09800
C544        C  0.82511897  0.18958054  0.39385754     0.29100
F545        F  0.86401261  0.19225930  0.39440193    -0.20300
H546        H  0.81788647  0.24597116  0.41776690     0.17400
H547        H  0.75232922  0.13434410  0.35861032     0.17400
F548        F  0.70628475  0.18957898  0.37960091    -0.20300
C549        C  0.96172803  0.19735614  0.28549261    -0.21800
C550        C  0.96058935  0.16326190  0.30736095    -0.09800
C551        C  0.99084333  0.15631479  0.33323900     0.29100
C552        C  0.01904149  0.18460295  0.33975440    -0.21800
C553        C  0.01752246  0.22053794  0.32109315    -0.09800
C554        C  0.98994627  0.22553783  0.29207887     0.29100
F555        F  0.98711824  0.25988268  0.27380857    -0.20300
H556        H  0.93921593  0.20335227  0.26488041     0.17400
H557        H  0.03900351  0.18044259  0.36327243     0.17400
F558        F  0.99077962  0.12427538  0.35546583    -0.20300
C559        C  0.85055991  0.30898730  0.35654712    -0.21800
C560        C  0.83244489  0.34390310  0.36453231    -0.09800
C561        C  0.85306423  0.37835291  0.36514018     0.29100
C562        C  0.89289793  0.37701517  0.36316904    -0.21800
C563        C  0.91135724  0.34120764  0.36139654    -0.09800
C564        C  0.89021433  0.30754139  0.35484098     0.29100
F565        F  0.90789935  0.27288085  0.35147555    -0.20300
H566        H  0.83422374  0.28249009  0.35518788     0.17400
H567        H  0.90912927  0.40316912  0.36800696     0.17400
F568        F  0.83518060  0.41228289  0.37234495    -0.20300
C569        C  0.76829335  0.41513269  0.57694339    -0.21800
C570        C  0.80206127  0.43660241  0.57085006    -0.09800
C571        C  0.80778140  0.45290315  0.53414532     0.29100
C572        C  0.78248967  0.44482221  0.50373566    -0.21800
C573        C  0.75040037  0.42091122  0.50901102    -0.09800
C574        C  0.74286461  0.40714036  0.54636311     0.29100
F575        F  0.71340806  0.38224385  0.55231912    -0.20300
H576        H  0.76309519  0.40197835  0.60464078     0.17400
H577        H  0.78964490  0.45491367  0.47518771     0.17400
F578        F  0.83908800  0.47506313  0.52698072    -0.20300
C579        C  0.98413030  0.33394756  0.54519046    -0.21800
C580        C  0.96476489  0.34150898  0.51068266    -0.09800
C581        C  0.92602459  0.35276595  0.51200310     0.29100
C582        C  0.90789659  0.35907363  0.54736713    -0.21800
C583        C  0.92851217  0.35567878  0.58187351    -0.09800
C584        C  0.96641888  0.34164673  0.58054264     0.29100
F585        F  0.98749675  0.33920117  0.61323969    -0.20300
H586        H  0.01385067  0.32473415  0.54470651     0.17400
H587        H  0.87910465  0.37091291  0.54752212     0.17400
F588        F  0.90618114  0.35911151  0.47905135    -0.20300
C589        C  0.86407389  0.63235568  0.61636949    -0.21800
C590        C  0.89952481  0.65104586  0.61249064    -0.09800
C591        C  0.93288779  0.63034056  0.60373599     0.29100
C592        C  0.93206249  0.59070915  0.60630283    -0.21800
C593        C  0.89790433  0.57254600  0.61687372    -0.09800
C594        C  0.86332576  0.59263612  0.61903631     0.29100
F595        F  0.83015363  0.57440958  0.62851628    -0.20300
H596        H  0.83814345  0.64837116  0.62271138     0.17400
H597        H  0.95856246  0.57457855  0.60363117     0.17400
F598        F  0.96692501  0.64853236  0.59776644    -0.20300
C599        C  0.03531188  0.90490302  0.72524782    -0.21800
C600        C  0.05801879  0.88683127  0.75337439    -0.09800
C601        C  0.05654527  0.84648050  0.75657345     0.29100
C602        C  0.03247302  0.82507407  0.73256760    -0.21800
C603        C  0.00912076  0.84327746  0.70509730    -0.09800
C604        C  0.01105157  0.88349200  0.70143720     0.29100
F605        F  0.98969138  0.90224883  0.67477577    -0.20300
H606        H  0.03587648  0.93585019  0.72191517     0.17400
H607        H  0.03161178  0.79414073  0.73604208     0.17400
F608        F  0.07794686  0.82754233  0.78308600    -0.20300
C609        C  0.96185583  0.08218271  0.87492995    -0.21800
C610        C  0.92733685  0.06140488  0.87246048    -0.09800
C611        C  0.92840061  0.02336392  0.85861154     0.29100
C612        C  0.96362963  0.00577690  0.84984034    -0.21800
C613        C  0.99824205  0.02540414  0.85635776    -0.09800
C614        C  0.99708053  0.06420893  0.86762036     0.29100
F615        F  0.03014934  0.08412125  0.87348336    -0.20300
H616        H  0.96192396  0.11102289  0.88677067     0.17400
H617        H  0.96402824  0.97591861  0.84095165     0.17400
F618        F  0.89571740  0.00210734  0.85722997    -0.20300
C619        C  0.92464374  0.22841725  0.92860593    -0.21800
C620        C  0.93165276  0.19427666  0.94918424    -0.09800
C621        C  0.96847444  0.18926237  0.96554343     0.29100
C622        C  0.99821142  0.21533935  0.95801566    -0.21800
C623        C  0.99235638  0.24734922  0.93428659    -0.09800
C624        C  0.95473097  0.25469283  0.92111127     0.29100
F625        F  0.94812362  0.28471662  0.89712451    -0.20300
H626        H  0.89675272  0.23327621  0.91572561     0.17400
H627        H  0.02696069  0.20845784  0.96777463     0.17400
F628        F  0.97671358  0.15759556  0.98677133    -0.20300
C629        C  0.98768802  0.38174874  0.81189398    -0.21800
C630        C  0.99055275  0.34173667  0.80703608    -0.09800
C631        C  0.96600928  0.32351897  0.78048342     0.29100
C632        C  0.94090423  0.34536912  0.75788373    -0.21800
C633        C  0.93949869  0.38568830  0.76142527    -0.09800
C634        C  0.96248606  0.40351751  0.78957010     0.29100
F635        F  0.96199002  0.44222030  0.79462985    -0.20300
H636        H  0.00573104  0.39652847  0.83250176     0.17400
H637        H  0.92348108  0.33073857  0.73664747     0.17400
F638        F  0.96741064  0.28488910  0.77495592    -0.20300
C639        C  0.12817481  0.09978351  0.90208256    -0.21800
C640        C  0.14233445  0.08141738  0.86918409    -0.09800
C641        C  0.15887433  0.10257738  0.83932169     0.29100
C642        C  0.15686186  0.14232907  0.84033408    -0.21800
C643        C  0.13769240  0.16035202  0.87066768    -0.09800
C644        C  0.12516626  0.13954534  0.90256085     0.29100
F645        F  0.10631429  0.15720633  0.93179279    -0.20300
H646        H  0.11505693  0.08333821  0.92503867     0.17400
H647        H  0.16639286  0.15872312  0.81563166     0.17400
F648        F  0.17297285  0.08477742  0.80758555    -0.20300
C649        C  0.20085380  0.38690833  0.75167513    -0.21800
C650        C  0.23394295  0.39546646  0.77274559    -0.09800
C651        C  0.23104993  0.40049022  0.81277721     0.29100
C652        C  0.19657784  0.39196727  0.83190048    -0.21800
C653        C  0.16459802  0.37878215  0.81118978    -0.09800
C654        C  0.16617757  0.37941670  0.77067737     0.29100
F655        F  0.13549817  0.36743896  0.74976977    -0.20300
H656        H  0.20242570  0.38364404  0.72078440     0.17400
H657        H  0.19643627  0.39106258  0.86299468     0.17400
F658        F  0.26257588  0.40990173  0.83373530    -0.20300
C659        C  0.19849258  0.32006313  0.01823232    -0.21800
C660        C  0.23608087  0.30665457  0.01106808    -0.09800
C661        C  0.24238169  0.28553488  0.97720772     0.29100
C662        C  0.21333428  0.28163173  0.94961890    -0.21800
C663        C  0.17688044  0.29842572  0.95485701    -0.09800
C664        C  0.16904912  0.31587053  0.99057694     0.29100
F665        F  0.13427690  0.33213885  0.99734659    -0.20300
H666        H  0.19305664  0.33777229  0.04326333     0.17400
H667        H  0.22032878  0.26741416  0.92282449     0.17400
F668        F  0.27844030  0.27372030  0.96815984    -0.20300
C669        C  0.39521840  0.35821089  0.85698167    -0.21800
C670        C  0.36086275  0.35186518  0.83745509    -0.09800
C671        C  0.32758057  0.34028108  0.85671507     0.29100
C672        C  0.32728339  0.34051764  0.89637021    -0.21800
C673        C  0.36033792  0.35190122  0.91611208    -0.09800
C674        C  0.39513885  0.35787616  0.89673316     0.29100
F675        F  0.42720682  0.36922680  0.91584456    -0.20300
H676        H  0.42076740  0.36733325  0.84170450     0.17400
H677        H  0.30048008  0.33568237  0.91148511     0.17400
F678        F  0.29434610  0.33375306  0.83732683    -0.20300
C679        C  0.79254186  0.55465733  0.78340216    -0.21800
C680        C  0.80369674  0.54495319  0.82112555    -0.09800
C681        C  0.81812479  0.50752326  0.82730879     0.29100
C682        C  0.82463357  0.48232653  0.79599745    -0.21800
C683        C  0.81669605  0.49371867  0.75796245    -0.09800
C684        C  0.79907045  0.52970211  0.75240227     0.29100
F685        F  0.79158228  0.54235599  0.71628765    -0.20300
H686        H  0.78070085  0.58280120  0.77730725     0.17400
H687        H  0.83932898  0.45537104  0.80115894     0.17400
F688        F  0.82876774  0.49630279  0.86304122    -0.20300
C689        C  0.90334545  0.67026982  0.76945434    -0.21800
C690        C  0.90321519  0.71026657  0.76422313    -0.09800
C691        C  0.89593082  0.73444246  0.79554339     0.29100
C692        C  0.88523243  0.71865357  0.83084537    -0.21800
C693        C  0.88190314  0.67857754  0.83533679    -0.09800
C694        C  0.89317182  0.65439362  0.80498585     0.29100
F695        F  0.88951777  0.61563953  0.80805885    -0.20300
H696        H  0.90923470  0.65136081  0.74542333     0.17400
H697        H  0.87597064  0.73776953  0.85361808     0.17400
F698        F  0.89567352  0.77320445  0.79100080    -0.20300
C699        C  0.46681890  0.52549254  0.80734285    -0.21800
C700        C  0.44839251  0.56125492  0.80233854    -0.09800
C701        C  0.42576515  0.56621791  0.76908742     0.29100
C702        C  0.41883059  0.53488474  0.74403409    -0.21800
C703        C  0.43460918  0.49821666  0.75130354    -0.09800
C704        C  0.46001262  0.49450745  0.78239973     0.29100
F705        F  0.47553102  0.45971178  0.79075906    -0.20300
H706        H  0.48492780  0.52066525  0.83216901     0.17400
H707        H  0.39815185  0.53835367  0.72104585     0.17400
F708        F  0.40752197  0.60007657  0.76264149    -0.20300
C709        C  0.36666662  0.56702682  0.97928468    -0.21800
C710        C  0.37245670  0.56830658  0.93932486    -0.09800
C711        C  0.36639766  0.53484436  0.91752201     0.29100
C712        C  0.35937797  0.49983112  0.93598368    -0.21800
C713        C  0.35725875  0.49813018  0.97615617    -0.09800
C714        C  0.35883341  0.53214679  0.99764550     0.29100
F715        F  0.35641355  0.53106921  0.03653387    -0.20300
H716        H  0.37221037  0.59230805  0.99663464     0.17400
H717        H  0.35731524  0.47373039  0.91908151     0.17400
F718        F  0.37249652  0.53499498  0.87901110    -0.20300
C719        C  0.60766902  0.59287679  0.90117566    -0.21800
C720        C  0.58732899  0.62169968  0.88204532    -0.09800
C721        C  0.60615821  0.64904651  0.85942268     0.29100
C722        C  0.64589933  0.64977565  0.85901265    -0.21800
C723        C  0.66614458  0.62383971  0.88194814    -0.09800
C724        C  0.64742436  0.59428463  0.90162582     0.29100
F725        F  0.66739502  0.56938867  0.92403092    -0.20300
H726        H  0.59287106  0.57209410  0.91903674     0.17400
H727        H  0.66067306  0.67278197  0.84408959     0.17400
F728        F  0.58617957  0.67705851  0.84102257    -0.20300
C729        C  0.35314812  0.84163754  0.36803008    -0.21800
C730        C  0.38470802  0.82287629  0.38438115    -0.09800
C731        C  0.41259949  0.84321710  0.40490254     0.29100
C732        C  0.41133252  0.88294032  0.40510378    -0.21800
C733        C  0.38267844  0.90174297  0.38429040    -0.09800
C734        C  0.35237606  0.88149204  0.36748746     0.29100
F735        F  0.32465877  0.90008774  0.34732821    -0.20300
H736        H  0.33168158  0.82568539  0.35203040     0.17400
H737        H  0.43480258  0.89895657  0.41794269     0.17400
F738        F  0.44287006  0.82482702  0.42121169    -0.20300
C739        C  0.96901565  0.95022878  0.21180659    -0.21800
C740        C  0.94821314  0.91540533  0.21282003    -0.09800
C741        C  0.92309267  0.90932210  0.24395216     0.29100
C742        C  0.91614958  0.93898214  0.27073497    -0.21800
C743        C  0.93396207  0.97525024  0.26715576    -0.09800
C744        C  0.96203799  0.97971009  0.23852271     0.29100
F745        F  0.97912209  0.01442742  0.23333809    -0.20300
H746        H  0.98898813  0.95575044  0.18859713     0.17400
H747        H  0.89328438  0.93516222  0.29151318     0.17400
F748        F  0.90206861  0.87652604  0.24618770    -0.20300
C749        C  0.86307345  0.73127563  0.06358715    -0.21800
C750        C  0.90299433  0.73382918  0.05866950    -0.09800
C751        C  0.92081220  0.70995032  0.03120790     0.29100
C752        C  0.89871595  0.68551615  0.00807460    -0.21800
C753        C  0.85855673  0.68392681  0.01212803    -0.09800
C754        C  0.84107242  0.70650067  0.04091996     0.29100
F755        F  0.80251770  0.70563583  0.04669109    -0.20300
H756        H  0.84866244  0.74884493  0.08484811     0.17400
H757        H  0.91304941  0.66846778  0.98634989     0.17400
F758        F  0.95939572  0.71112015  0.02560487    -0.20300
C759        C  0.86074845  0.93958387  0.08365602    -0.21800
C760        C  0.87660090  0.90814058  0.06403241    -0.09800
C761        C  0.87784735  0.90914125  0.02352607     0.29100
C762        C  0.86809778  0.94271877  0.00354649    -0.21800
C763        C  0.85588420  0.97535968  0.02359510    -0.09800
C764        C  0.85034920  0.97297999  0.06357377     0.29100
F765        F  0.83817835  0.00418056  0.08359311    -0.20300
H766        H  0.86039987  0.93996380  0.11475852     0.17400
H767        H  0.87228182  0.94396948  0.97275092     0.17400
F768        F  0.89260289  0.87896166  0.00367473    -0.20300
C769        C  0.02182023  0.88218229  0.93313269    -0.21800
C770        C  0.06051652  0.87299928  0.92552191    -0.09800
C771        C  0.07948059  0.84693100  0.94981419     0.29100
C772        C  0.06123401  0.83387789  0.98332971    -0.21800
C773        C  0.02431147  0.84707994  0.99292599    -0.09800
C774        C  0.00411632  0.87000743  0.96689590     0.29100
F775        F  0.96840468  0.88304906  0.97552098    -0.20300
H776        H  0.00649329  0.90210754  0.91478098     0.17400
H777        H  0.07714508  0.81624221  0.00341288     0.17400
F778        F  0.11688768  0.83781733  0.94375763    -0.20300
C779        C  0.26901368  0.90940221  0.96151284    -0.21800
C780        C  0.26115652  0.92438308  0.99835760    -0.09800
C781        C  0.22950416  0.94910271  0.00234213     0.29100
C782        C  0.20473530  0.95601193  0.97138486    -0.21800
C783        C  0.21023130  0.93817508  0.93537780    -0.09800
C784        C  0.24393724  0.91622077  0.93024347     0.29100
F785        F  0.25097958  0.89862551  0.89618971    -0.20300
H786        H  0.29238572  0.88915833  0.95784696     0.17400
H787        H  0.17960556  0.97365536  0.97649603     0.17400
F788        F  0.22014246  0.96333233  0.03743588    -0.20300
C789        C  0.32964242  0.97329993  0.17954257    -0.21800
C790        C  0.30955325  0.93887317  0.18658061    -0.09800
C791        C  0.29207171  0.93419013  0.22289868     0.29100
C792        C  0.29828311  0.96098690  0.25236994    -0.21800
C793        C  0.32180804  0.99327404  0.24662895    -0.09800
C794        C  0.33582572  0.00020206  0.20927165     0.29100
F795        F  0.35962019  0.03044587  0.20277293    -0.20300
H796        H  0.34313355  0.97801409  0.15192434     0.17400
H797        H  0.28790789  0.95439279  0.28095847     0.17400
F798        F  0.27085494  0.90240590  0.23087714    -0.20300
C799        C  0.41074552  0.77831540  0.96544529    -0.21800
C800        C  0.39370131  0.74493019  0.95021718    -0.09800
C801        C  0.35483749  0.73724065  0.95857754     0.29100
C802        C  0.33395227  0.76217333  0.98220609    -0.21800
C803        C  0.35156358  0.79468167  0.99841526    -0.09800
C804        C  0.39002043  0.80286086  0.98942496     0.29100
F805        F  0.40768286  0.83450752  0.00397206    -0.20300
H806        H  0.44047893  0.78516231  0.95938176     0.17400
H807        H  0.30446886  0.75512732  0.98923447     0.17400
F808        F  0.33741540  0.70484947  0.94547610    -0.20300
C809        C  0.38603597  0.75623343  0.17511018    -0.21800
C810        C  0.38596588  0.79674395  0.17267828    -0.09800
C811        C  0.39932906  0.81805057  0.20426791     0.29100
C812        C  0.40751088  0.79940924  0.23906128    -0.21800
C813        C  0.40335023  0.75934902  0.24242888    -0.09800
C814        C  0.39456457  0.73763389  0.20973053     0.29100
F815        F  0.39108885  0.69881898  0.21211298    -0.20300
H816        H  0.37537645  0.73918713  0.15131399     0.17400
H817        H  0.41484606  0.81647178  0.26406499     0.17400
F818        F  0.39957652  0.85706267  0.20308910    -0.20300
C819        C  0.15019140  0.83177505  0.15970629    -0.21800
C820        C  0.17001482  0.86121242  0.14100509    -0.09800
C821        C  0.15065905  0.89312650  0.12618742     0.29100
C822        C  0.11075705  0.89310264  0.12582779    -0.21800
C823        C  0.09101953  0.86074808  0.13936905    -0.09800
C824        C  0.11047201  0.83125495  0.15852866     0.29100
F825        F  0.09131105  0.80002129  0.17197964    -0.20300
H826        H  0.16538601  0.80700255  0.17093153     0.17400
H827        H  0.09563612  0.91587966  0.11093711     0.17400
F828        F  0.17021816  0.92176664  0.10828598    -0.20300
C829        C  0.51806787  0.81823833  0.83603202    -0.21800
C830        C  0.55031317  0.81167698  0.81265316    -0.09800
C831        C  0.55284453  0.77611970  0.79316532     0.29100
C832        C  0.52553952  0.74702517  0.79940148    -0.21800
C833        C  0.49510973  0.75228965  0.82533693    -0.09800
C834        C  0.49105129  0.78876050  0.84273858     0.29100
F835        F  0.46405902  0.79412381  0.87036975    -0.20300
H836        H  0.51562207  0.84493346  0.85188935     0.17400
H837        H  0.53049029  0.71887114  0.78699336     0.17400
F838        F  0.58322337  0.76842406  0.76994902    -0.20300
C839        C  0.72368541  0.02070065  0.84081971    -0.21800
C840        C  0.69971490  0.99469062  0.86032086    -0.09800
C841        C  0.69939485  0.99491417  0.90074672     0.29100
C842        C  0.72318979  0.02009700  0.92092841    -0.21800
C843        C  0.74803288  0.04525816  0.90139666    -0.09800
C844        C  0.74771346  0.04564260  0.86101259     0.29100
F845        F  0.77098413  0.06959834  0.84086207    -0.20300
H846        H  0.72460550  0.02118589  0.80974226     0.17400
H847        H  0.72291869  0.01902945  0.95200688     0.17400
F848        F  0.67684719  0.97031400  0.92096700    -0.20300
C849        C  0.71965075  0.82491491  0.91324179    -0.21800
C850        C  0.68200976  0.82171133  0.89874061    -0.09800
C851        C  0.66478513  0.78522763  0.89712818     0.29100
C852        C  0.68683968  0.75239531  0.90358778    -0.21800
C853        C  0.72578644  0.75549359  0.91337236    -0.09800
C854        C  0.74137132  0.79185538  0.92118251     0.29100
F855        F  0.77852337  0.79544143  0.93241653    -0.20300
H856        H  0.73366170  0.85274349  0.91405341     0.17400
H857        H  0.67413299  0.72437873  0.89850151     0.17400
F858        F  0.62878463  0.78101696  0.88268303    -0.20300
C859        C  0.77604366  0.88925214  0.70625496    -0.21800
C860        C  0.77302571  0.87976646  0.74538672    -0.09800
C861        C  0.80364830  0.86122694  0.76358876     0.29100
C862        C  0.83574413  0.84999540  0.74220109    -0.21800
C863        C  0.83724685  0.85609291  0.70220392    -0.09800
C864        C  0.80780411  0.87722383  0.68460222     0.29100
F865        F  0.80725620  0.88179600  0.64590558    -0.20300
H866        H  0.75218562  0.90297253  0.69173051     0.17400
H867        H  0.85787109  0.83319715  0.75619845     0.17400
F868        F  0.80132355  0.85162047  0.80128936    -0.20300
C869        C  0.76686081  0.77786348  0.52317660    -0.21800
C870        C  0.77151560  0.80572407  0.49448210    -0.09800
C871        C  0.80837673  0.82209849  0.48971959     0.29100
C872        C  0.83808127  0.81455435  0.51626142    -0.21800
C873        C  0.83166282  0.79029122  0.54791338    -0.09800
C874        C  0.79653996  0.76982715  0.54926321     0.29100
F875        F  0.78969888  0.74388180  0.57755191    -0.20300
H876        H  0.73880414  0.76525238  0.52802214     0.17400
H877        H  0.86491281  0.83014350  0.51378721     0.17400
F878        F  0.81414716  0.84921847  0.46229660    -0.20300
C879        C  0.54098883  0.78789423  0.47384490    -0.21800
C880        C  0.57763032  0.78388481  0.45686104    -0.09800
C881        C  0.58425000  0.75075597  0.43442551     0.29100
C882        C  0.55404142  0.72467470  0.42650647    -0.21800
C883        C  0.51660664  0.73060845  0.44092977    -0.09800
C884        C  0.51100277  0.76188458  0.46595561     0.29100
F885        F  0.47530031  0.76962371  0.47959826    -0.20300
H886        H  0.53469187  0.81269047  0.49160966     0.17400
H887        H  0.55899203  0.70191188  0.40582572     0.17400
F888        F  0.61880012  0.74532672  0.41723872    -0.20300
C889        C  0.78167803  0.96445330  0.41997176    -0.21800
C890        C  0.75605065  0.93871470  0.40219001    -0.09800
C891        C  0.75404148  0.93770577  0.36189465     0.29100
C892        C  0.77694104  0.96232866  0.34007510    -0.21800
C893        C  0.80202951  0.98852634  0.35793028    -0.09800
C894        C  0.80434553  0.98919664  0.39823039     0.29100
F895        F  0.82832405  0.01375369  0.41684544    -0.20300
H896        H  0.78385858  0.96597580  0.45095646     0.17400
H897        H  0.77460309  0.96117672  0.30908994     0.17400
F898        F  0.72986619  0.91324432  0.34346070    -0.20300
C899        C  0.55692755  0.91023599  0.36972094    -0.21800
C900        C  0.58541555  0.93122019  0.38903302    -0.09800
C901        C  0.58175391  0.97149831  0.39191854     0.29100
C902        C  0.54809507  0.98973624  0.37986915    -0.21800
C903        C  0.51809950  0.96816033  0.36411998    -0.09800
C904        C  0.52329617  0.92860424  0.35737840     0.29100
F905        F  0.49442357  0.90718983  0.34216573    -0.20300
H906        H  0.55882224  0.87919443  0.36787241     0.17400
H907        H  0.54446264  0.02023761  0.38506826     0.17400
F908        F  0.60920217  0.99262324  0.40992715    -0.20300
C909        C  0.61449107  0.85391417  0.61710758    -0.21800
C910        C  0.64996941  0.85236527  0.59810814    -0.09800
C911        C  0.68363839  0.84321711  0.61814842     0.29100
C912        C  0.68262024  0.84138757  0.65773017    -0.21800
C913        C  0.64820353  0.84880294  0.67689258    -0.09800
C914        C  0.61361803  0.85241860  0.65692478     0.29100
F915        F  0.58025970  0.85951075  0.67584676    -0.20300
H916        H  0.58835979  0.86075133  0.60164869     0.17400
H917        H  0.70930489  0.83837551  0.67351842     0.17400
F918        F  0.71797513  0.84026103  0.59984170    -0.20300
C919        C  0.45815050  0.28049429  0.03380443    -0.21800
C920        C  0.42369099  0.27905239  0.05508274    -0.09800
C921        C  0.41817066  0.24772565  0.08006789     0.29100
C922        C  0.44807797  0.22109235  0.08633476    -0.21800
C923        C  0.48409358  0.22518976  0.06814793    -0.09800
C924        C  0.48795646  0.25411083  0.04029550     0.29100
F925        F  0.52250076  0.26013937  0.02323869    -0.20300
H926        H  0.46325433  0.30396415  0.01399946     0.17400
H927        H  0.44475478  0.20014949  0.10913392     0.17400
F928        F  0.38582529  0.24526532  0.10168420    -0.20300
C929        C  0.71621779  0.20264326  0.05663867    -0.21800
C930        C  0.67938498  0.18739646  0.04902329    -0.09800
C931        C  0.67393406  0.16833617  0.01364675     0.29100
C932        C  0.70561161  0.16109915  0.98909288    -0.21800
C933        C  0.74308044  0.17309263  0.99908886    -0.09800
C934        C  0.74748381  0.19542531  0.03239827     0.29100
F935        F  0.78303591  0.20686720  0.04370250    -0.20300
H936        H  0.72166729  0.21828457  0.08299910     0.17400
H937        H  0.70145456  0.14292919  0.96414997     0.17400
F938        F  0.63889921  0.15410288  0.00416845    -0.20300
C939        C  0.46896109  0.07424420  0.22073995    -0.21800
C940        C  0.45020521  0.09198949  0.25189594    -0.09800
C941        C  0.45447831  0.13196463  0.25695549     0.29100
C942        C  0.47753091  0.15324440  0.23199589    -0.21800
C943        C  0.49711456  0.13539173  0.20153113    -0.09800
C944        C  0.49223093  0.09563981  0.19580266     0.29100
F945        F  0.50970393  0.07743363  0.16606920    -0.20300
H946        H  0.46598477  0.04363671  0.21585165     0.17400
H947        H  0.48079062  0.18378187  0.23720119     0.17400
F948        F  0.43721964  0.15062771  0.28654454    -0.20300
C949        C  0.67890334  0.12874005  0.23368493    -0.21800
C950        C  0.67119203  0.12138868  0.19466103    -0.09800
C951        C  0.69741995  0.09920451  0.17337119     0.29100
C952        C  0.73228255  0.08779794  0.19015438    -0.21800
C953        C  0.74118078  0.09871345  0.22799009    -0.09800
C954        C  0.71388164  0.11821217  0.24998813     0.29100
F955        F  0.72221678  0.12955303  0.28634287    -0.20300
H956        H  0.65933771  0.14612189  0.25055866     0.17400
H957        H  0.75337637  0.07277280  0.17289510     0.17400
F958        F  0.69145162  0.09241167  0.13544519    -0.20300
C959        C  0.61606168  0.33218747  0.29626893    -0.21800
C960        C  0.61417042  0.31154234  0.33086654    -0.09800
C961        C  0.60179276  0.27298458  0.32991223     0.29100
C962        C  0.59417643  0.25477844  0.29481112    -0.21800
C963        C  0.60036521  0.27432180  0.26019677    -0.09800
C964        C  0.61008906  0.31354690  0.26110788     0.29100
F965        F  0.61580378  0.33326324  0.22794208    -0.20300
H966        H  0.62693383  0.36140282  0.29611015     0.17400
H967        H  0.58653013  0.22458015  0.29454732     0.17400
F968        F  0.60172443  0.25169183  0.36256035    -0.20300
C969        C  0.70690806  0.45910794  0.25421676    -0.21800
C970        C  0.68379707  0.49177910  0.25877304    -0.09800
C971        C  0.67040622  0.50075896  0.29596216     0.29100
C972        C  0.67697118  0.47539287  0.32697023    -0.21800
C973        C  0.69700183  0.44066615  0.32134217    -0.09800
C974        C  0.71378513  0.43409748  0.28495688     0.29100
F975        F  0.73486859  0.40195991  0.27821328    -0.20300
H976        H  0.71692721  0.45108545  0.22585803     0.17400
H977        H  0.66380631  0.48143433  0.35449187     0.17400
F978        F  0.64710212  0.53159042  0.30129679    -0.20300
C979        C  0.73784215  0.56179441  0.07974027    -0.21800
C980        C  0.70277185  0.54312171  0.07209741    -0.09800
C981        C  0.69762965  0.52675544  0.03528232     0.29100
C982        C  0.72460361  0.53296718  0.00598924    -0.21800
C983        C  0.75750968  0.55544349  0.01236069    -0.09800
C984        C  0.76488388  0.56804447  0.05017102     0.29100
F985        F  0.79569557  0.59089340  0.05734262    -0.20300
H986        H  0.74294610  0.57439042  0.10772423     0.17400
H987        H  0.71764930  0.52368704  0.97710069     0.17400
F988        F  0.66520129  0.50682993  0.02664756    -0.20300
C989        C  0.53041038  0.56986270  0.28279755    -0.21800
C990        C  0.55856836  0.58866951  0.26072373    -0.09800
C991        C  0.56356929  0.62854189  0.26547904     0.29100
C992        C  0.53986990  0.64919814  0.29044064    -0.21800
C993        C  0.51047313  0.63082137  0.31123684    -0.09800
C994        C  0.50647640  0.59060667  0.30769985     0.29100
F995        F  0.47873355  0.57134492  0.32720979    -0.20300
H996        H  0.52593033  0.53918943  0.27976996     0.17400
H997        H  0.54408242  0.67996458  0.29274548     0.17400
F998        F  0.59110598  0.64784743  0.24571899    -0.20300
C999        C  0.52611224  0.63380959  0.08840652    -0.21800
C1000       C  0.56585687  0.62635269  0.08682281    -0.09800
C1001       C  0.58530983  0.63176493  0.05192324     0.29100
C1002       C  0.56445495  0.63845518  0.01827779    -0.21800
C1003       C  0.52425824  0.64128410  0.01932561    -0.09800
C1004       C  0.50536539  0.64156194  0.05482257     0.29100
F1005       F  0.46661471  0.64544269  0.05657843    -0.20300
H1006       H  0.51049874  0.62911862  0.11490641     0.17400
H1007       H  0.57945939  0.63913680  0.99101610     0.17400
F1008       F  0.62356532  0.62460099  0.04931023    -0.20300
C1009       C  0.64731570  0.38645896  0.11967488    -0.21800
C1010       C  0.61351727  0.40662719  0.11235660    -0.09800
C1011       C  0.58034948  0.38784418  0.09963876     0.29100
C1012       C  0.57925920  0.34813813  0.09997044    -0.21800
C1013       C  0.61139800  0.32777605  0.11267836    -0.09800
C1014       C  0.64648733  0.34659468  0.11935989     0.29100
F1015       F  0.67799088  0.32693758  0.13130741    -0.20300
H1016       H  0.67285423  0.40132632  0.12953166     0.17400
H1017       H  0.55231995  0.33352208  0.09431724     0.17400
F1018       F  0.54769474  0.40780287  0.09207018    -0.20300
C1019       C  0.48141780  0.43119042  0.15760029    -0.21800
C1020       C  0.48489915  0.47061780  0.14920724    -0.09800
C1021       C  0.45376887  0.49007623  0.13296756     0.29100
C1022       C  0.42083813  0.46970765  0.12228885    -0.21800
C1023       C  0.41889083  0.42945234  0.12657104    -0.09800
C1024       C  0.44864162  0.41054410  0.14620027     0.29100
F1025       F  0.44833489  0.37167218  0.14978869    -0.20300
H1026       H  0.50551678  0.41574706  0.16984568     0.17400
H1027       H  0.39847367  0.48477053  0.10672346     0.17400
F1028       F  0.45642966  0.52812161  0.12470092    -0.20300
C1029       C  0.48533511  0.31559774  0.68131774    -0.21800
C1030       C  0.45043671  0.30852409  0.70059126    -0.09800
C1031       C  0.44475907  0.27159114  0.71650165     0.29100
C1032       C  0.47152023  0.24204966  0.71042222    -0.21800
C1033       C  0.50469029  0.24808444  0.68827213    -0.09800
C1034       C  0.51204188  0.28567486  0.67491493     0.29100
F1035       F  0.54262773  0.29238595  0.65167830    -0.20300
H1036       H  0.49063430  0.34351714  0.66861675     0.17400
H1037       H  0.46447711  0.21326794  0.72005711     0.17400
F1038       F  0.41211486  0.26313840  0.73608880    -0.20300
C1039       C  0.55357524  0.99459076  0.72676544    -0.21800
C1040       C  0.57972508  0.99867725  0.75711798    -0.09800
C1041       C  0.59655724  0.03520282  0.76302926     0.29100
C1042       C  0.58885675  0.06609593  0.73778835    -0.21800
C1043       C  0.56464625  0.06106958  0.70578621    -0.09800
C1044       C  0.54585064  0.02524403  0.70167133     0.29100
F1045       F  0.52132530  0.01908042  0.67200160    -0.20300
H1046       H  0.54111769  0.96666013  0.72077818     0.17400
H1047       H  0.60406778  0.09300353  0.74163950     0.17400
F1048       F  0.62357847  0.03988387  0.79075723    -0.20300
C1049       C  0.60633012  0.30098642  0.51238969    -0.21800
C1050       C  0.64670731  0.29916387  0.51148568    -0.09800
C1051       C  0.66543553  0.27453936  0.53762318     0.29100
C1052       C  0.64421034  0.25094682  0.56225659    -0.21800
C1053       C  0.60382131  0.25135377  0.56193374    -0.09800
C1054       C  0.58505419  0.27762498  0.53746258     0.29100
F1055       F  0.54614135  0.27987818  0.53659417    -0.20300
H1056       H  0.59106545  0.31992473  0.49302514     0.17400
H1057       H  0.65962132  0.23147236  0.58096773     0.17400
F1058       F  0.70433309  0.27186880  0.53849900    -0.20300
C1059       C  0.63385011  0.03639622  0.59608140    -0.21800
C1060       C  0.63967555  0.07106775  0.57633434    -0.09800
C1061       C  0.65653728  0.06995747  0.53963252     0.29100
C1062       C  0.66475256  0.03449260  0.52205455    -0.21800
C1063       C  0.65438226  0.99993852  0.54021554    -0.09800
C1064       C  0.64006570  0.00116547  0.57788518     0.29100
F1065       F  0.63025573  0.96825029  0.59643175    -0.20300
H1066       H  0.62008677  0.03642499  0.62397139     0.17400
H1067       H  0.67631592  0.03405766  0.49318886     0.17400
F1068       F  0.66177664  0.10299418  0.51957135    -0.20300
C1069       C  0.42302287  0.13294145  0.45635122    -0.21800
C1070       C  0.44251156  0.11969144  0.42367909    -0.09800
C1071       C  0.48302977  0.12117017  0.42326333     0.29100
C1072       C  0.50353597  0.13075865  0.45653066    -0.21800
C1073       C  0.48393215  0.14001378  0.49031270    -0.09800
C1074       C  0.44358419  0.14314704  0.48949109     0.29100
F1075       F  0.42389545  0.15267291  0.52176648    -0.20300
H1076       H  0.39198272  0.13111439  0.45778157     0.17400
H1077       H  0.53456733  0.12854630  0.45659531     0.17400
F1078       F  0.50271241  0.10857332  0.39204051    -0.20300
C1079       C  0.26396568  0.06177214  0.42403243    -0.21800
C1080       C  0.29653018  0.03899914  0.43122449    -0.09800
C1081       C  0.29780869  0.01821640  0.46603624     0.29100
C1082       C  0.27000692  0.02416766  0.49467921    -0.21800
C1083       C  0.24024907  0.05092188  0.48953710    -0.09800
C1084       C  0.23610855  0.06769119  0.45284985     0.29100
F1085       F  0.20838437  0.09446807  0.44688355    -0.20300
H1086       H  0.26180074  0.07777631  0.39745950     0.17400
H1087       H  0.27454884  0.01145757  0.52270838     0.17400
F1088       F  0.32751751  0.99412114  0.47361952    -0.20300
C1089       C  0.17181287  0.97293029  0.70540935    -0.21800
C1090       C  0.19095307  0.97623148  0.74097499    -0.09800
C1091       C  0.21961397  0.00452642  0.74436166     0.29100
C1092       C  0.22603958  0.03109375  0.71461262    -0.21800
C1093       C  0.20410382  0.03025547  0.68055660    -0.09800
C1094       C  0.17807310  0.99962375  0.67557782     0.29100
F1095       F  0.15558900  0.99788261  0.64379429    -0.20300
H1096       H  0.14837663  0.95259195  0.70246362     0.17400
H1097       H  0.24663211  0.05399678  0.71931719     0.17400
F1098       F  0.23795547  0.00954867  0.77838921    -0.20300
C1099       C  0.08756174  0.20790282  0.48030435    -0.21800
C1100       C  0.10528570  0.23606983  0.45727832    -0.09800
C1101       C  0.14554224  0.23949220  0.45819721     0.29100
C1102       C  0.16735724  0.21512190  0.48132681    -0.21800
C1103       C  0.14970941  0.18699386  0.50431706    -0.09800
C1104       C  0.10941989  0.18367063  0.50369537     0.29100
F1105       F  0.09105099  0.15689957  0.52533786    -0.20300
H1106       H  0.05662462  0.20459932  0.48033999     0.17400
H1107       H  0.19826664  0.21866745  0.48152445     0.17400
F1108       F  0.16405207  0.26643555  0.43692912    -0.20300
C1109       C  0.14524492  0.22268854  0.67735557    -0.21800
C1110       C  0.13804798  0.18304327  0.67301072    -0.09800
C1111       C  0.11263175  0.16489540  0.69857457     0.29100
C1112       C  0.09778610  0.18539099  0.73001763    -0.21800
C1113       C  0.10838975  0.22392421  0.73628108    -0.09800
C1114       C  0.13089638  0.24288397  0.70890907     0.29100
F1115       F  0.14146704  0.28009001  0.71434969    -0.20300
H1116       H  0.16485056  0.23726794  0.65805600     0.17400
H1117       H  0.08099525  0.17021679  0.75137997     0.17400
F1118       F  0.10600676  0.12651519  0.69595233    -0.20300
C1119       C  0.36288974  0.10279387  0.64818427    -0.21800
C1120       C  0.34517696  0.09710839  0.61244504    -0.09800
C1121       C  0.36678505  0.08630530  0.58032905     0.29100
C1122       C  0.40642711  0.08731301  0.58261027    -0.21800
C1123       C  0.42386280  0.09966884  0.61657162    -0.09800
C1124       C  0.40263153  0.10465365  0.65017695     0.29100
F1125       F  0.41988774  0.11583103  0.68331844    -0.20300
H1126       H  0.34618773  0.11075350  0.67322182     0.17400
H1127       H  0.42329897  0.08275837  0.55683656     0.17400
F1128       F  0.34971792  0.07919000  0.54597756    -0.20300
C1129       C  0.26436564  0.27894189  0.60441503    -0.21800
C1130       C  0.28741714  0.24598123  0.60493250    -0.09800
C1131       C  0.32735413  0.24993008  0.60952679     0.29100
C1132       C  0.34342845  0.28617228  0.61712118    -0.21800
C1133       C  0.31971879  0.31864887  0.62097849    -0.09800
C1134       C  0.28025039  0.31497057  0.61279744     0.29100
F1135       F  0.25643676  0.34556797  0.61711177    -0.20300
H1136       H  0.23361185  0.27638261  0.60034279     0.17400
H1137       H  0.37369033  0.28805042  0.62419200     0.17400
F1138       F  0.35047815  0.21850849  0.60848695    -0.20300
C1139       C  0.09344592  0.43861603  0.24243371    -0.21800
C1140       C  0.07378253  0.47406178  0.24510693    -0.09800
C1141       C  0.04406889  0.47702114  0.27217299     0.29100
C1142       C  0.03605069  0.44658641  0.29745437    -0.21800
C1143       C  0.05774469  0.41229733  0.29708550    -0.09800
C1144       C  0.08558188  0.40799853  0.26796978     0.29100
F1145       F  0.10779849  0.37596505  0.26651215    -0.20300
H1146       H  0.11775231  0.43605033  0.22314666     0.17400
H1147       H  0.01424869  0.45096705  0.31921368     0.17400
F1148       F  0.02570228  0.51106741  0.27716082    -0.20300
C1149       C  0.98774085  0.69101309  0.17542293    -0.21800
C1150       C  0.99440652  0.72827912  0.19006943    -0.09800
C1151       C  0.02534707  0.73329263  0.21547260     0.29100
C1152       C  0.05121484  0.70321046  0.22257012    -0.21800
C1153       C  0.04711656  0.66702495  0.20465546    -0.09800
C1154       C  0.01358302  0.66052485  0.18284735     0.29100
F1155       F  0.00758505  0.62596962  0.16574383    -0.20300
H1156       H  0.96482329  0.68649007  0.15485431     0.17400
H1157       H  0.07611240  0.70919469  0.24025926     0.17400
F1158       F  0.03323196  0.76876507  0.22977327    -0.20300
C1159       C  0.21786528  0.45543645  0.16843765    -0.21800
C1160       C  0.20133135  0.48817200  0.15137321    -0.09800
C1161       C  0.20861241  0.49579178  0.11241500     0.29100
C1162       C  0.23225407  0.47136165  0.09132904    -0.21800
C1163       C  0.24922200  0.43899643  0.10852293    -0.09800
C1164       C  0.24164462  0.43103408  0.14728078     0.29100
F1165       F  0.25668669  0.39949977  0.16459997    -0.20300
H1166       H  0.21254258  0.44872221  0.19832524     0.17400
H1167       H  0.23785419  0.47826085  0.06152398     0.17400
F1168       F  0.19373593  0.52723091  0.09475112    -0.20300
C1169       C  0.23592420  0.66217842  0.13731649    -0.21800
C1170       C  0.19612941  0.65765880  0.13139307    -0.09800
C1171       C  0.17695946  0.68372753  0.10728819     0.29100
C1172       C  0.19629769  0.71658787  0.09398996    -0.21800
C1173       C  0.23459974  0.72349476  0.10482510    -0.09800
C1174       C  0.25492159  0.69510779  0.12463274     0.29100
F1175       F  0.29214657  0.70093698  0.13477254    -0.20300
H1176       H  0.25136995  0.64227868  0.15559567     0.17400
H1177       H  0.18031296  0.73845150  0.07867495     0.17400
F1178       F  0.13865640  0.68025778  0.10091778    -0.20300
C1179       C  0.30270011  0.60013001  0.34088019    -0.21800
C1180       C  0.33546148  0.60891202  0.31914594    -0.09800
C1181       C  0.33365732  0.60562217  0.27881416     0.29100
C1182       C  0.29870150  0.59759902  0.26058104    -0.21800
C1183       C  0.26519839  0.59331659  0.28236087    -0.09800
C1184       C  0.26761292  0.59287623  0.32261806     0.29100
F1185       F  0.23550547  0.58798644  0.34421133    -0.20300
H1186       H  0.30312314  0.60357032  0.37180420     0.17400
H1187       H  0.29726370  0.59750794  0.22951015     0.17400
F1188       F  0.36469458  0.61472655  0.25700654    -0.20300
C1189       C  0.28876832  0.69883408  0.45492871    -0.21800
C1190       C  0.32493449  0.68105934  0.45949169    -0.09800
C1191       C  0.33041869  0.65794012  0.49231893     0.29100
C1192       C  0.29952746  0.65030718  0.51762089    -0.21800
C1193       C  0.26264391  0.66579861  0.51113798    -0.09800
C1194       C  0.25813927  0.69127607  0.48015901     0.29100
F1195       F  0.22295306  0.70607165  0.47218650    -0.20300
H1196       H  0.28342232  0.71709773  0.43031589     0.17400
H1197       H  0.30353813  0.62932363  0.54025872     0.17400
F1198       F  0.36443106  0.63981628  0.49806168    -0.20300
C1199       C  0.04635158  0.69910858  0.53704009    -0.21800
C1200       C  0.07922529  0.69757217  0.56061332    -0.09800
C1201       C  0.08534889  0.72779095  0.58677056     0.29100
C1202       C  0.05721328  0.75638485  0.59192284    -0.21800
C1203       C  0.02216233  0.75519562  0.57166494    -0.09800
C1204       C  0.01828008  0.72771759  0.54227536     0.29100
F1205       F  0.98488709  0.72533045  0.52229159    -0.20300
H1206       H  0.04110067  0.67654349  0.51621313     0.17400
H1207       H  0.06047502  0.77622784  0.61573111     0.17400
F1208       F  0.11606598  0.72706431  0.61074872    -0.20300
C1209       C  0.25263270  0.53934723  0.65163140    -0.21800
C1210       C  0.25709411  0.54276578  0.61163531    -0.09800
C1211       C  0.28873724  0.52471809  0.59396035     0.29100
C1212       C  0.31372081  0.50190932  0.61550739    -0.21800
C1213       C  0.30828970  0.49722336  0.65514761    -0.09800
C1214       C  0.27802711  0.51701147  0.67327823     0.29100
F1215       F  0.27164260  0.51321541  0.71155263    -0.20300
H1216       H  0.22881712  0.55314166  0.66614473     0.17400
H1217       H  0.33710595  0.48738380  0.60099545     0.17400
F1218       F  0.29537999  0.52850237  0.55574969    -0.20300
C1219       C  0.01831757  0.54641254  0.66354986    -0.21800
C1220       C  0.01884772  0.50618148  0.65931562    -0.09800
C1221       C  0.05359170  0.48785293  0.65088306     0.29100
C1222       C  0.08631132  0.50987837  0.64265556    -0.21800
C1223       C  0.08452978  0.55041856  0.64178386    -0.09800
C1224       C  0.05091510  0.56850324  0.65483495     0.29100
F1225       F  0.04772836  0.60739343  0.65357136    -0.20300
H1226       H  0.99165745  0.56095544  0.67037574     0.17400
H1227       H  0.11168188  0.49530618  0.63200889     0.17400
F1228       F  0.05503714  0.44902045  0.64727540    -0.20300
C1229       C  0.10822576  0.56983823  0.40321618    -0.21800
C1230       C  0.11964118  0.60303398  0.42259808    -0.09800
C1231       C  0.12532759  0.63774508  0.40327857     0.29100
C1232       C  0.12496127  0.63769008  0.36341974    -0.21800
C1233       C  0.11917802  0.60288558  0.34394611    -0.09800
C1234       C  0.10774063  0.56974317  0.36364714     0.29100
F1235       F  0.10059820  0.53632532  0.34470952    -0.20300
H1236       H  0.10323707  0.54319697  0.41860594     0.17400
H1237       H  0.13357929  0.66339110  0.34809048     0.17400
F1238       F  0.13559268  0.67007424  0.42262525    -0.20300
C1239       C  0.11756276  0.44469555  0.51049883    -0.21800
C1240       C  0.13977120  0.47234363  0.49171308    -0.09800
C1241       C  0.15319795  0.46498301  0.45427814     0.29100
C1242       C  0.14110578  0.43196672  0.43449478    -0.21800
C1243       C  0.11575703  0.40608155  0.45210266    -0.09800
C1244       C  0.10622898  0.41139658  0.49113957     0.29100
F1245       F  0.08257348  0.38618732  0.50928983    -0.20300
H1246       H  0.10727111  0.44988975  0.53940161     0.17400
H1247       H  0.14831300  0.42876545  0.40440485     0.17400
F1248       F  0.17474419  0.49158202  0.43556262    -0.20300
loop_ 
_geom_bond_atom_site_label_1 
_geom_bond_atom_site_label_2 
_geom_bond_distance 
_geom_bond_site_symmetry_2 
_ccdc_geom_bond_type 
O1           C16   1.252       .  A
O1           Al9   1.862       .  S
C2           O12   1.253       .  A
C2            O3   1.281       .  A
C2         C1223   1.475       .  S
O3           Al5   1.999       .  S
O4            C6   1.262       .  A
O4           Al5   1.892       .  S
Al5          O13   1.932       .  S
Al5          O15   2.002       .  S
Al5          O14   1.777       .  S
C6           O19   1.265       .  A
C6         C1210   1.483       .  S
O7           C17   1.256       .  A
O7           Al9   1.891       .  S
O8           C21   1.251       .  A
O8          Al18   1.851       .  S
Al9          O22   1.910       .  S
Al9          O19   1.920       .  S
Al9          O14   1.771       .  S
O10          C17   1.265       .  A
O10         Al18   1.939       .  S
O11          C20   1.265       .  A
O11         Al18   1.928       .  S
O12         Al18   1.839       .  S
O13          C20   1.267       .  A
O14         Al18   1.773       .  S
O15          C16   1.278       .  A
C16        C1193   1.492       .  S
C17        C1240   1.469       .  S
C20        C1200   1.496       .  S
C21          O22   1.267       .  A
C21        C1230   1.425       .  S
O23          C38   1.248       .  A
O23         Al31   1.847       .  S
C24          O34   1.259       .  A
C24          O25   1.281       .  A
C24        C1170   1.477       .  S
O25         Al27   1.989       .  S
O26          C28   1.261       .  A
O26         Al27   1.891       .  S
Al27         O35   1.953       .  S
Al27         O37   2.002       .  S
Al27         O36   1.776       .  S
C28          O41   1.260       .  A
C28        C1160   1.475       .  S
O29          C39   1.252       .  A
O29         Al31   1.892       .  S
O30          C43   1.256       .  A
O30         Al40   1.855       .  S
Al31         O44   1.900       .  S
Al31         O41   1.897       .  S
Al31         O36   1.768       .  S
O32          C39   1.263       .  A
O32         Al40   1.943       .  S
O33          C42   1.264       .  A
O33         Al40   1.920       .  S
O34         Al40   1.850       .  S
O35          C42   1.271       .  A
O36         Al40   1.774       .  S
O37          C38   1.278       .  A
C38        C1140   1.488       .  S
C39        C1183   1.469       .  S
C42        C1153   1.506       .  S
C43          O44   1.268       .  A
C43        C1233   1.435       .  S
O45          C60   1.247       .  A
O45         Al53   1.834       .  S
C46          O56   1.261       .  A
C46          O47   1.282       .  A
C46        C1110   1.478       .  S
O47         Al49   1.987       .  S
O48          C50   1.260       .  A
O48         Al49   1.894       .  S
Al49         O57   1.942       .  S
Al49         O59   1.993       .  S
Al49         O58   1.778       .  S
C50          O63   1.261       .  A
C50        C1103   1.480       .  S
O51          C61   1.251       .  A
O51         Al53   1.892       .  S
O52          C65   1.257       .  A
O52         Al62   1.850       .  S
Al53         O66   1.915       .  S
Al53         O63   1.899       .  S
Al53         O58   1.770       .  S
O54          C61   1.262       .  A
O54         Al62   1.949       .  S
O55          C64   1.262       .  A
O55         Al62   1.924       .  S
O56         Al62   1.856       .  S
O57          C64   1.267       .  A
O58         Al62   1.777       .  S
O59          C60   1.276       .  A
C60        C1083   1.481       .  S
C61        C1130   1.474       .  S
C64        C1093   1.503       .  S
C65          O66   1.272       .  A
C65        C1120   1.441       .  S
O67          C82   1.248       .  A
O67         Al75   1.860       .  S
C68          O78   1.255       .  A
C68          O69   1.276       .  A
C68        C1060   1.469       .  S
O69         Al71   1.985       .  S
O70          C72   1.267       .  A
O70         Al71   1.895       .  S
Al71         O79   1.950       .  S
Al71         O81   1.999       .  S
Al71         O80   1.785       .  S
C72          O85   1.272       .  A
C72        C1053   1.491       .  S
O73          C83   1.254       .  A
O73         Al75   1.893       .  S
O74          C87   1.251       .  A
O74         Al84   1.851       .  S
Al75         O88   1.913       .  S
Al75         O85   1.943       .  S
Al75         O80   1.765       .  S
O76          C83   1.264       .  A
O76         Al84   1.941       .  S
O77          C86   1.271       .  A
O77         Al84   1.939       .  S
O78         Al84   1.873       .  S
O79          C86   1.276       .  A
O80         Al84   1.764       .  S
O81          C82   1.274       .  A
C82        C1033   1.488       .  S
C83        C1073   1.475       .  S
C86        C1043   1.505       .  S
C87          O88   1.268       .  A
C87        C1123   1.430       .  S
O89         C104   1.250       .  A
O89         Al97   1.867       .  S
C90         O100   1.254       .  A
C90          O91   1.276       .  A
C90        C1000   1.467       .  S
O91         Al93   1.984       .  S
O92          C94   1.266       .  A
O92         Al93   1.893       .  S
Al93        O101   1.944       .  S
Al93        O103   1.985       .  S
Al93        O102   1.783       .  S
C94         O107   1.271       .  A
C94         C990   1.485       .  S
O95         C105   1.255       .  A
O95         Al97   1.892       .  S
O96         C109   1.251       .  A
O96        Al106   1.850       .  S
Al97        O110   1.907       .  S
Al97        O107   1.934       .  S
Al97        O102   1.766       .  S
O98         C105   1.263       .  A
O98        Al106   1.931       .  S
O99         C108   1.270       .  A
O99        Al106   1.936       .  S
O100       Al106   1.858       .  S
O101        C108   1.273       .  A
O102       Al106   1.766       .  S
O103        C104   1.271       .  A
C104        C970   1.485       .  S
C105       C1020   1.472       .  S
C108        C980   1.503       .  S
C109        O110   1.267       .  A
C109       C1010   1.428       .  S
O111        C126   1.247       .  A
O111       Al119   1.837       .  S
C112        O122   1.261       .  A
C112        O113   1.283       .  A
C112        C950   1.475       .  S
O113       Al115   1.990       .  S
O114        C116   1.264       .  A
O114       Al115   1.907       .  S
Al115       O123   1.966       .  S
Al115       O125   1.989       .  S
Al115       O124   1.780       .  S
C116        O129   1.262       .  A
C116        C943   1.482       .  S
O117        C127   1.251       .  A
O117       Al119   1.899       .  S
O118        C131   1.257       .  A
O118       Al128   1.848       .  S
Al119       O132   1.915       .  S
Al119       O129   1.897       .  S
Al119       O124   1.766       .  S
O120        C127   1.260       .  A
O120       Al128   1.939       .  S
O121        C130   1.261       .  A
O121       Al128   1.909       .  S
O122       Al128   1.851       .  S
O123        C130   1.272       .  A
O124       Al128   1.772       .  S
O125        C126   1.275       .  A
C126        C923   1.481       .  S
C127        C963   1.474       .  S
C130        C930   1.508       .  S
C131        O132   1.273       .  A
C131       C1013   1.438       .  S
O133        C148   1.250       .  A
O133       Al141   1.847       .  S
C134        O144   1.261       .  A
C134        O135   1.280       .  A
C134        C900   1.473       .  S
O135       Al137   1.980       .  S
O136        C138   1.261       .  A
O136       Al137   1.897       .  S
Al137       O145   1.954       .  S
Al137       O147   1.989       .  S
Al137       O146   1.779       .  S
C138        O151   1.258       .  A
C138        C890   1.475       .  S
O139        C149   1.252       .  A
O139       Al141   1.904       .  S
O140        C153   1.259       .  A
O140       Al150   1.857       .  S
Al141       O154   1.904       .  S
Al141       O151   1.881       .  S
Al141       O146   1.774       .  S
O142        C149   1.261       .  A
O142       Al150   1.935       .  S
O143        C152   1.262       .  A
O143       Al150   1.923       .  S
O144       Al150   1.859       .  S
O145        C152   1.270       .  A
O146       Al150   1.776       .  S
O147        C148   1.276       .  A
C148        C870   1.484       .  S
C149       C1063   1.477       .  S
C152        C880   1.511       .  S
C153        O154   1.270       .  A
C153        C910   1.441       .  S
O155        C170   1.251       .  A
O155       Al163   1.871       .  S
C156        O166   1.254       .  A
C156        O157   1.275       .  A
C156        C850   1.464       .  S
O157       Al159   1.981       .  S
O158        C160   1.263       .  A
O158       Al159   1.885       .  S
Al159       O167   1.941       .  S
Al159       O169   1.993       .  S
Al159       O168   1.782       .  S
C160        O173   1.268       .  A
C160        C840   1.477       .  S
O161        C171   1.254       .  A
O161       Al163   1.893       .  S
O162        C175   1.253       .  A
O162       Al172   1.857       .  S
Al163       O176   1.903       .  S
Al163       O173   1.918       .  S
Al163       O168   1.767       .  S
O164        C171   1.262       .  A
O164       Al172   1.930       .  S
O165        C174   1.268       .  A
O165       Al172   1.931       .  S
O166       Al172   1.861       .  S
O167        C174   1.273       .  A
O168       Al172   1.767       .  S
O169        C170   1.274       .  A
C170       C1040   1.491       .  S
C171        C860   1.470       .  S
C174        C830   1.498       .  S
C175        O176   1.267       .  A
C175        C913   1.429       .  S
O177        C192   1.248       .  A
O177       Al185   1.862       .  S
C178        O188   1.252       .  A
C178        O179   1.278       .  A
C178        C810   1.478       .  S
O179       Al181   1.999       .  S
O180        C182   1.265       .  A
O180       Al181   1.883       .  S
Al181       O189   1.938       .  S
Al181       O191   2.000       .  S
Al181       O190   1.784       .  S
C182        O195   1.270       .  A
C182        C803   1.472   1_554  S
O183        C193   1.253       .  A
O183       Al185   1.889       .  S
O184        C197   1.251       .  A
O184       Al194   1.853       .  S
Al185       O198   1.903       .  S
Al185       O195   1.931       .  S
Al185       O190   1.766       .  S
O186        C193   1.262       .  A
O186       Al194   1.920       .  S
O187        C196   1.270       .  A
O187       Al194   1.936       .  S
O188       Al194   1.857       .  S
O189        C196   1.273       .  A
O190       Al194   1.764       .  S
O191        C192   1.274       .  A
C192        C780   1.489   1_554  S
C193       C1173   1.467       .  S
C196        C790   1.500       .  S
C197        O198   1.266       .  A
C197        C820   1.432       .  S
O199        C214   1.249   1_455  A
O199       Al207   1.853       .  S
C200        O210   1.254       .  A
C200        O201   1.279       .  A
C200        C760   1.477       .  S
O201       Al203   1.993       .  S
O202        C204   1.264       .  A
O202       Al203   1.897       .  S
Al203       O211   1.943       .  S
Al203       O213   1.996       .  S
Al203       O212   1.783       .  S
C204        O217   1.263       .  A
C204        C750   1.482       .  S
O205        C215   1.254   1_655  A
O205       Al207   1.891   1_655  S
O206        C219   1.254       .  A
O206       Al216   1.859   1_455  S
Al207       O220   1.902       .  S
Al207       O217   1.913   1_455  S
Al207       O212   1.775   1_455  S
O208        C215   1.262       .  A
O208       Al216   1.924   1_455  S
O209        C218   1.265       .  A
O209       Al216   1.924       .  S
O210       Al216   1.850       .  S
O211        C218   1.269       .  A
O212       Al216   1.776       .  S
O213        C214   1.276       .  A
C214       C1150   1.487       .  S
C215        C773   1.467   1_554  S
C218        C740   1.502       .  S
C219        O220   1.266       .  A
C219        C823   1.439       .  S
O221        C236   1.249   1_565  A
O221       Al229   1.851       .  S
C222        O232   1.254       .  A
C222        O223   1.280       .  A
C222       C1070   1.474       .  S
O223       Al225   1.995       .  S
O224        C226   1.263       .  A
O224       Al225   1.891       .  S
Al225       O233   1.940       .  S
Al225       O235   1.990       .  S
Al225       O234   1.779       .  S
C226        O239   1.266       .  A
C226        C940   1.486       .  S
O227        C237   1.255       .  A
O227       Al229   1.893       .  S
O228        C241   1.252       .  A
O228       Al238   1.849   1_565  S
Al229       O242   1.910       .  S
Al229       O239   1.924   1_565  S
Al229       O234   1.771   1_565  S
O230        C237   1.262       .  A
O230       Al238   1.932   1_565  S
O231        C240   1.266       .  A
O231       Al238   1.928       .  S
O232       Al238   1.848       .  S
O233        C240   1.268       .  A
O234       Al238   1.772       .  S
O235        C236   1.274       .  A
C236        C793   1.482   1_545  S
C237        C903   1.468       .  S
C240       C1080   1.501       .  S
C241        O242   1.267       .  A
C241        C733   1.427       .  S
O243        C258   1.248       .  A
O243       Al251   1.848       .  S
C244        O254   1.257       .  A
C244        O245   1.281       .  A
C244       C1180   1.469       .  S
O245       Al247   1.990       .  S
O246        C248   1.263       .  A
O246       Al247   1.905       .  S
Al247       O255   1.955       .  S
Al247       O257   2.005       .  S
Al247       O256   1.781       .  S
C248        O261   1.264       .  A
C248        C993   1.489       .  S
O249        C259   1.252       .  A
O249       Al251   1.897       .  S
O250        C263   1.255       .  A
O250       Al260   1.847       .  S
Al251       O264   1.912       .  S
Al251       O261   1.910       .  S
Al251       O256   1.770       .  S
O252        C259   1.261       .  A
O252       Al260   1.941       .  S
O253        C262   1.265       .  A
O253       Al260   1.931       .  S
O254       Al260   1.853       .  S
O255        C262   1.272       .  A
O256       Al260   1.776       .  S
O257        C258   1.278       .  A
C258        C883   1.493       .  S
C259        C813   1.474       .  S
C262       C1190   1.509       .  S
C263        O264   1.271       .  A
C263        C730   1.432       .  S
O265        C280   1.247       .  A
O265       Al273   1.841       .  S
C266        O276   1.258       .  A
C266        O267   1.279       .  A
C266        C710   1.465       .  S
O267       Al269   1.980       .  S
O268        C270   1.262       .  A
O268       Al269   1.899       .  S
Al269       O277   1.951       .  S
Al269       O279   1.999       .  S
Al269       O278   1.778       .  S
C270        O283   1.263       .  A
C270        C800   1.481       .  S
O271        C281   1.253       .  A
O271       Al273   1.895       .  S
O272        C285   1.255       .  A
O272       Al282   1.853       .  S
Al273       O286   1.906       .  S
Al273       O283   1.908       .  S
Al273       O278   1.766       .  S
O274        C281   1.263       .  A
O274       Al282   1.941       .  S
O275        C284   1.267       .  A
O275       Al282   1.929       .  S
O276       Al282   1.857       .  S
O277        C284   1.272       .  A
O278       Al282   1.768       .  S
O279        C280   1.277       .  A
C280        C833   1.482       .  S
C281       C1003   1.469   1_556  S
C284        C700   1.506       .  S
C285        O286   1.268       .  A
C285        C720   1.429       .  S
O287        C302   1.247       .  A
O287       Al295   1.848       .  S
C288        O298   1.259       .  A
C288        O289   1.278       .  A
C288        C693   1.471       .  S
O289       Al291   1.979       .  S
O290        C292   1.265       .  A
O290       Al291   1.905       .  S
Al291       O299   1.955       .  S
Al291       O301   1.993       .  S
Al291       O300   1.779       .  S
C292        O305   1.265       .  A
C292        C753   1.486   1_556  S
O293        C303   1.253       .  A
O293       Al295   1.899       .  S
O294        C307   1.255       .  A
O294       Al304   1.850       .  S
Al295       O308   1.910       .  S
Al295       O305   1.912       .  S
Al295       O300   1.767       .  S
O296        C303   1.262       .  A
O296       Al304   1.932       .  S
O297        C306   1.267       .  A
O297       Al304   1.931       .  S
O298       Al304   1.866       .  S
O299        C306   1.274       .  A
O300       Al304   1.769       .  S
O301        C302   1.275       .  A
C302        C983   1.483   1_556  S
C303        C853   1.471       .  S
C306        C680   1.509       .  S
C307        O308   1.268       .  A
C307        C723   1.428       .  S
O309        C324   1.247       .  A
O309       Al317   1.826       .  S
C310        O320   1.260       .  A
C310        O311   1.284       .  A
C310       C1023   1.476       .  S
O311       Al313   1.997       .  S
O312        C314   1.261       .  A
O312       Al313   1.900       .  S
Al313       O321   1.947       .  S
Al313       O323   1.997       .  S
Al313       O322   1.777       .  S
C314        O327   1.256       .  A
C314       C1163   1.472       .  S
O315        C325   1.249   1_554  A
O315       Al317   1.886       .  S
O316        C329   1.257       .  A
O316       Al326   1.850   1_556  S
Al317       O330   1.906   1_554  S
Al317       O327   1.877       .  S
Al317       O322   1.769       .  S
O318        C325   1.261       .  A
O318       Al326   1.943   1_556  S
O319        C328   1.260       .  A
O319       Al326   1.912       .  S
O320       Al326   1.845       .  S
O321        C328   1.266       .  A
O322       Al326   1.777       .  S
O323        C324   1.278       .  A
C324        C660   1.482       .  S
C325        C713   1.465       .  S
C328        C920   1.500       .  S
C329        O330   1.270       .  A
C329        C673   1.433       .  S
O331        C346   1.249       .  A
O331       Al339   1.872       .  S
C332        O342   1.252       .  A
C332        O333   1.275       .  A
C332       C1133   1.475       .  S
O333       Al335   1.991       .  S
O334        C336   1.268       .  A
O334       Al335   1.890       .  S
Al335       O343   1.938       .  S
Al335       O345   2.001       .  S
Al335       O344   1.786       .  S
C336        O349   1.272       .  A
C336       C1213   1.478       .  S
O337        C347   1.253       .  A
O337       Al339   1.887       .  S
O338        C351   1.249       .  A
O338       Al348   1.843       .  S
Al339       O352   1.901       .  S
Al339       O349   1.933       .  S
Al339       O344   1.764       .  S
O340        C347   1.265       .  A
O340       Al348   1.942       .  S
O341        C350   1.275       .  A
O341       Al348   1.951       .  S
O342       Al348   1.867       .  S
O343        C350   1.276       .  A
O344       Al348   1.763       .  S
O345        C346   1.273       .  A
C346        C703   1.492       .  S
C347        C650   1.476       .  S
C350       C1030   1.504       .  S
C351        O352   1.265       .  A
C351        C670   1.425       .  S
O353        C368   1.250       .  A
O353       Al361   1.861       .  S
C354        O364   1.252       .  A
C354        O355   1.279       .  A
C354        C653   1.476       .  S
O355       Al357   1.999       .  S
O356        C358   1.265       .  A
O356       Al357   1.889       .  S
Al357       O365   1.943       .  S
Al357       O367   1.988       .  S
Al357       O366   1.783       .  S
C358        O371   1.270       .  A
C358        C630   1.484   1_455  S
O359        C369   1.256       .  A
O359       Al361   1.899       .  S
O360        C373   1.252       .  A
O360       Al370   1.853       .  S
Al361       O374   1.910       .  S
Al361       O371   1.933       .  S
Al361       O366   1.770       .  S
O362        C369   1.261       .  A
O362       Al370   1.918       .  S
O363        C372   1.268       .  A
O363       Al370   1.929       .  S
O364       Al370   1.849       .  S
O365        C372   1.270       .  A
O366       Al370   1.767       .  S
O367        C368   1.273       .  A
C368        C623   1.485   1_455  S
C369       C1113   1.470       .  S
C372        C663   1.502       .  S
C373        O374   1.267       .  A
C373        C643   1.431       .  S
O375        C390   1.247       .  A
O375       Al383   1.840       .  S
C376        O386   1.260       .  A
C376        O377   1.282       .  A
C376        C770   1.478       .  S
O377       Al379   1.990       .  S
O378        C380   1.261       .  A
O378       Al379   1.897       .  S
Al379       O387   1.958       .  S
Al379       O389   1.997       .  S
Al379       O388   1.780       .  S
C380        O393   1.263       .  A
C380        C600   1.484       .  S
O381        C391   1.254   1_565  A
O381       Al383   1.904       .  S
O382        C395   1.257       .  A
O382       Al392   1.855   1_545  S
Al383       O396   1.914   1_565  S
Al383       O393   1.907       .  S
Al383       O388   1.768       .  S
O384        C391   1.261       .  A
O384       Al392   1.939   1_545  S
O385        C394   1.262       .  A
O385       Al392   1.916       .  S
O386       Al392   1.850       .  S
O387        C394   1.271       .  A
O388       Al392   1.771       .  S
O389        C390   1.277       .  A
C390       C1090   1.483       .  S
C391        C613   1.477   1_455  S
C394        C783   1.508       .  S
C395        O396   1.271       .  A
C395        C640   1.437       .  S
O397        C412   1.247       .  A
O397       Al405   1.836       .  S
C398        O408   1.258       .  A
C398        O399   1.283       .  A
C398        C863   1.475       .  S
O399       Al401   1.991       .  S
O400        C402   1.262       .  A
O400       Al401   1.900       .  S
Al401       O409   1.950       .  S
Al401       O411   1.993       .  S
Al401       O410   1.775       .  S
C402        O415   1.261       .  A
C402        C603   1.481   1_655  S
O403        C413   1.253       .  A
O403       Al405   1.892       .  S
O404        C417   1.256       .  A
O404       Al414   1.853       .  S
Al405       O418   1.902       .  S
Al405       O415   1.900       .  S
Al405       O410   1.767       .  S
O406        C413   1.262       .  A
O406       Al414   1.940       .  S
O407        C416   1.261       .  A
O407       Al414   1.916       .  S
O408       Al414   1.847       .  S
O409        C416   1.268       .  A
O410       Al414   1.774       .  S
O411        C412   1.276       .  A
C412       C1203   1.479   1_655  S
C413        C690   1.467       .  S
C416        C873   1.504       .  S
C417        O418   1.269       .  A
C417        C590   1.436       .  S
O419        C434   1.250       .  A
O419       Al427   1.863       .  S
C420        O430   1.254       .  A
C420        O421   1.279       .  A
C420        C583   1.471       .  S
O421       Al423   1.996       .  S
O422        C424   1.265       .  A
O422       Al423   1.893       .  S
Al423       O431   1.940       .  S
Al423       O433   2.009       .  S
Al423       O432   1.781       .  S
C424        O437   1.270       .  A
C424        C633   1.486       .  S
O425        C435   1.254       .  A
O425       Al427   1.894       .  S
O426        C439   1.250       .  A
O426       Al436   1.841       .  S
Al427       O440   1.915       .  S
Al427       O437   1.932       .  S
Al427       O432   1.764       .  S
O428        C435   1.265       .  A
O428       Al436   1.946       .  S
O429        C438   1.272       .  A
O429       Al436   1.947       .  S
O430       Al436   1.865       .  S
O431        C438   1.274       .  A
O432       Al436   1.762       .  S
O433        C434   1.277       .  A
C434        C683   1.494       .  S
C435       C1220   1.475   1_655  S
C438        C570   1.503       .  S
C439        O440   1.268       .  A
C439        C593   1.424       .  S
O441        C456   1.248       .  A
O441       Al449   1.832       .  S
C442        O452   1.261       .  A
C442        O443   1.282       .  A
C442       C1243   1.474       .  S
O443       Al445   1.982       .  S
O444        C446   1.259       .  A
O444       Al445   1.897       .  S
Al445       O453   1.951       .  S
Al445       O455   1.987       .  S
Al445       O454   1.781       .  S
C446        O459   1.257       .  A
C446       C1100   1.482       .  S
O447        C457   1.252   1_455  A
O447       Al449   1.896       .  S
O448        C461   1.259       .  A
O448       Al458   1.862   1_655  S
Al449       O462   1.909   1_455  S
Al449       O459   1.891       .  S
Al449       O454   1.773       .  S
O450        C457   1.263       .  A
O450       Al458   1.950   1_655  S
O451        C460   1.260       .  A
O451       Al458   1.915       .  S
O452       Al458   1.847       .  S
O453        C460   1.267       .  A
O454       Al458   1.777       .  S
O455        C456   1.277       .  A
C456        C553   1.478       .  S
C457        C580   1.478       .  S
C460       C1143   1.507       .  S
C461        O462   1.271       .  A
C461        C563   1.444       .  S
O463        C478   1.252       .  A
O463       Al471   1.869       .  S
C464        O474   1.252       .  A
C464        O465   1.278       .  A
C464        C960   1.469       .  S
O465       Al467   1.993       .  S
O466        C468   1.267       .  A
O466       Al467   1.909       .  S
Al467       O475   1.950       .  S
Al467       O477   1.997       .  S
Al467       O476   1.783       .  S
C468        O481   1.269       .  A
C468       C1050   1.491       .  S
O469        C479   1.256       .  A
O469       Al471   1.898       .  S
O470        C483   1.253       .  A
O470       Al480   1.859       .  S
Al471       O484   1.915       .  S
Al471       O481   1.928       .  S
Al471       O476   1.765       .  S
O472        C479   1.262       .  A
O472       Al480   1.927       .  S
O473        C482   1.268       .  A
O473       Al480   1.927       .  S
O474       Al480   1.858       .  S
O475        C482   1.274       .  A
O476       Al480   1.763       .  S
O477        C478   1.276       .  A
C478        C573   1.489       .  S
C479        C540   1.468       .  S
C482        C973   1.502       .  S
C483        O484   1.268       .  A
C483        C560   1.433       .  S
O485        C500   1.248       .  A
O485       Al493   1.842       .  S
C486        O496   1.257       .  A
C486        O487   1.281       .  A
C486        C543   1.472       .  S
O487       Al489   1.986       .  S
O488        C490   1.259       .  A
O488       Al489   1.881       .  S
Al489       O497   1.932       .  S
Al489       O499   1.990       .  S
Al489       O498   1.777       .  S
C490        O503   1.260       .  A
C490        C893   1.474   1_545  S
O491        C501   1.252       .  A
O491       Al493   1.888       .  S
O492        C505   1.256       .  A
O492       Al502   1.851       .  S
Al493       O506   1.896       .  S
Al493       O503   1.897       .  S
Al493       O498   1.773       .  S
O494        C501   1.261       .  A
O494       Al502   1.932       .  S
O495        C504   1.262       .  A
O495       Al502   1.924       .  S
O496       Al502   1.852       .  S
O497        C504   1.265       .  A
O498       Al502   1.778       .  S
O499        C500   1.275       .  A
C500        C743   1.482   1_545  S
C501        C953   1.465       .  S
C504        C550   1.498       .  S
C505        O506   1.268       .  A
C505        C530   1.432       .  S
O507        C522   1.251   1_554  A
O507       Al515   1.863   1_554  S
C508        O518   1.255       .  A
C508        O509   1.278       .  A
C508        C610   1.472       .  S
O509       Al511   1.993       .  S
O510        C512   1.264       .  A
O510       Al511   1.889       .  S
Al511       O519   1.947       .  S
Al511       O521   2.000       .  S
Al511       O520   1.781       .  S
C512        O525   1.267       .  A
C512        C843   1.477       .  S
O513        C523   1.255   1_556  A
O513       Al515   1.900       .  S
O514        C527   1.251       .  A
O514       Al524   1.848   1_554  S
Al515       O528   1.904   1_556  S
Al515       O525   1.915       .  S
Al515       O520   1.767       .  S
O516        C523   1.263       .  A
O516       Al524   1.939   1_554  S
O517        C526   1.268       .  A
O517       Al524   1.930       .  S
O518       Al524   1.866       .  S
O519        C526   1.274       .  A
O520       Al524   1.764       .  S
O521        C522   1.275       .  A
C522        C933   1.491       .  S
C523        C763   1.476   1_545  S
C526        C620   1.502       .  S
C527        O528   1.266       .  A
C527        C533   1.423       .  S
C529        C530   1.401       .  A
C529        C534   1.385       .  A
C529        H536   1.084       .  S
C530        C531   1.399       .  A
C531        C532   1.379       .  A
C531        F538   1.359       .  S
C532        C533   1.395       .  A
C532        H537   1.085       .  S
C533        C534   1.395       .  A
C534        F535   1.358       .  S
C539        C540   1.404       .  A
C539        C544   1.399       .  A
C539        H546   1.084       .  S
C540        C541   1.400       .  A
C541        C542   1.401       .  A
C541        F548   1.358       .  S
C542        C543   1.410       .  A
C542        H547   1.083       .  S
C543        C544   1.402       .  A
C544        F545   1.357       .  S
C549        C550   1.410       .  A
C549        C554   1.406       .  A
C549        H556   1.083       .  S
C550        C551   1.407       .  A
C551        C552   1.407   1_655  A
C551        F558   1.357       .  S
C552        C553   1.410       .  A
C552        H557   1.084       .  S
C553        C554   1.405   1_455  A
C554        F555   1.357       .  S
C559        C560   1.396       .  A
C559        C564   1.383       .  A
C559        H566   1.083       .  S
C560        C561   1.396       .  A
C561        C562   1.389       .  A
C561        F568   1.358       .  S
C562        C563   1.403       .  A
C562        H567   1.083       .  S
C563        C564   1.401       .  A
C564        F565   1.359       .  S
C569        C570   1.408       .  A
C569        C574   1.412       .  A
C569        H576   1.083       .  S
C570        C571   1.413       .  A
C571        C572   1.405       .  A
C571        F578   1.357       .  S
C572        C573   1.404       .  A
C572        H577   1.084       .  S
C573        C574   1.411       .  A
C574        F575   1.358       .  S
C579        C580   1.403       .  A
C579        C584   1.403       .  A
C579        H586   1.083   1_655  S
C580        C581   1.405       .  A
C581        C582   1.401       .  A
C581        F588   1.358       .  S
C582        C583   1.405       .  A
C582        H587   1.084       .  S
C583        C584   1.408       .  A
C584        F585   1.357       .  S
C589        C590   1.401       .  A
C589        C594   1.385       .  A
C589        H596   1.084       .  S
C590        C591   1.400       .  A
C591        C592   1.381       .  A
C591        F598   1.359       .  S
C592        C593   1.396       .  A
C592        H597   1.084       .  S
C593        C594   1.394       .  A
C594        F595   1.358       .  S
C599        C600   1.408       .  A
C599        C604   1.398       .  A
C599        H606   1.083       .  S
C600        C601   1.408       .  A
C601        C602   1.398       .  A
C601        F608   1.358       .  S
C602        C603   1.407       .  A
C602        H607   1.083       .  S
C603        C604   1.406       .  A
C604        F605   1.357   1_455  S
C609        C610   1.404       .  A
C609        C614   1.400       .  A
C609        H616   1.084       .  S
C610        C611   1.408       .  A
C611        C612   1.404       .  A
C611        F618   1.357       .  S
C612        C613   1.403       .  A
C612        H617   1.083   1_545  S
C613        C614   1.405       .  A
C614        F615   1.358   1_655  S
C619        C620   1.409       .  A
C619        C624   1.414       .  A
C619        H626   1.083       .  S
C620        C621   1.414       .  A
C621        C622   1.401       .  A
C621        F628   1.358       .  S
C622        C623   1.402       .  A
C622        H627   1.084   1_655  S
C623        C624   1.411       .  A
C624        F625   1.357       .  S
C629        C630   1.405       .  A
C629        C634   1.396       .  A
C629        H636   1.083   1_655  S
C630        C631   1.409       .  A
C631        C632   1.401       .  A
C631        F638   1.358       .  S
C632        C633   1.408       .  A
C632        H637   1.083       .  S
C633        C634   1.408       .  A
C634        F635   1.357       .  S
C639        C640   1.401       .  A
C639        C644   1.387       .  A
C639        H646   1.084       .  S
C640        C641   1.398       .  A
C641        C642   1.384       .  A
C641        F648   1.358       .  S
C642        C643   1.398       .  A
C642        H647   1.084       .  S
C643        C644   1.396       .  A
C644        F645   1.358       .  S
C649        C650   1.398       .  A
C649        C654   1.401       .  A
C649        H656   1.083       .  S
C650        C651   1.409       .  A
C651        C652   1.404       .  A
C651        F658   1.358       .  S
C652        C653   1.403       .  A
C652        H657   1.083       .  S
C653        C654   1.412       .  A
C654        F655   1.358       .  S
C659        C660   1.411       .  A
C659        C664   1.414   1_554  A
C659        H666   1.084       .  S
C660        C661   1.406   1_554  A
C661        C662   1.401       .  A
C661        F668   1.358       .  S
C662        C663   1.409       .  A
C662        H667   1.083       .  S
C663        C664   1.410       .  A
C664        F665   1.357       .  S
C669        C670   1.393       .  A
C669        C674   1.385       .  A
C669        H676   1.084       .  S
C670        C671   1.398       .  A
C671        C672   1.381       .  A
C671        F678   1.358       .  S
C672        C673   1.397       .  A
C672        H677   1.084       .  S
C673        C674   1.402       .  A
C674        F675   1.358       .  S
C679        C680   1.411       .  A
C679        C684   1.403       .  A
C679        H686   1.083       .  S
C680        C681   1.412       .  A
C681        C682   1.417       .  A
C681        F688   1.356       .  S
C682        C683   1.410       .  A
C682        H687   1.083       .  S
C683        C684   1.407       .  A
C684        F685   1.358       .  S
C689        C690   1.403       .  A
C689        C694   1.401       .  A
C689        H696   1.084       .  S
C690        C691   1.400       .  A
C691        C692   1.397       .  A
C691        F698   1.357       .  S
C692        C693   1.407       .  A
C692        H697   1.084       .  S
C693        C694   1.406       .  A
C694        F695   1.358       .  S
C699        C700   1.411       .  A
C699        C704   1.403       .  A
C699        H706   1.083       .  S
C700        C701   1.411       .  A
C701        C702   1.416       .  A
C701        F708   1.357       .  S
C702        C703   1.412       .  A
C702        H707   1.084       .  S
C703        C704   1.404       .  A
C704        F705   1.357       .  S
C709        C710   1.407       .  A
C709        C714   1.398       .  A
C709        H716   1.084       .  S
C710        C711   1.405       .  A
C711        C712   1.399       .  A
C711        F718   1.358       .  S
C712        C713   1.402       .  A
C712        H717   1.084       .  S
C713        C714   1.400       .  A
C714        F715   1.358   1_556  S
C719        C720   1.397       .  A
C719        C724   1.385       .  A
C719        H726   1.084       .  S
C720        C721   1.398       .  A
C721        C722   1.384       .  A
C721        F728   1.358       .  S
C722        C723   1.397       .  A
C722        H727   1.084       .  S
C723        C724   1.397       .  A
C724        F725   1.358       .  S
C729        C730   1.400       .  A
C729        C734   1.386       .  A
C729        H736   1.084       .  S
C730        C731   1.397       .  A
C731        C732   1.382       .  A
C731        F738   1.358       .  S
C732        C733   1.396       .  A
C732        H737   1.085       .  S
C733        C734   1.396       .  A
C734        F735   1.358       .  S
C739        C740   1.411       .  A
C739        C744   1.405       .  A
C739        H746   1.083       .  S
C740        C741   1.409       .  A
C741        C742   1.411       .  A
C741        F748   1.357       .  S
C742        C743   1.411       .  A
C742        H747   1.084       .  S
C743        C744   1.405       .  A
C744        F745   1.358   1_565  S
C749        C750   1.403       .  A
C749        C754   1.396       .  A
C749        H756   1.083       .  S
C750        C751   1.410       .  A
C751        C752   1.400       .  A
C751        F758   1.358       .  S
C752        C753   1.406       .  A
C752        H757   1.083   1_554  S
C753        C754   1.411       .  A
C754        F755   1.357       .  S
C759        C760   1.402       .  A
C759        C764   1.404       .  A
C759        H766   1.083       .  S
C760        C761   1.412       .  A
C761        C762   1.402       .  A
C761        F768   1.357       .  S
C762        C763   1.398       .  A
C762        H767   1.083   1_554  S
C763        C764   1.408       .  A
C764        F765   1.357   1_565  S
C769        C770   1.410       .  A
C769        C774   1.394       .  A
C769        H776   1.084       .  S
C770        C771   1.406       .  A
C771        C772   1.404       .  A
C771        F778   1.357       .  S
C772        C773   1.405       .  A
C772        H777   1.083   1_556  S
C773        C774   1.398       .  A
C774        F775   1.357   1_455  S
C779        C780   1.411       .  A
C779        C784   1.416       .  A
C779        H786   1.084       .  S
C780        C781   1.405   1_556  A
C781        C782   1.402   1_554  A
C781        F788   1.358       .  S
C782        C783   1.412       .  A
C782        H787   1.083       .  S
C783        C784   1.412       .  A
C784        F785   1.356       .  S
C789        C790   1.408       .  A
C789        C794   1.411   1_565  A
C789        H796   1.083       .  S
C790        C791   1.413       .  A
C791        C792   1.402       .  A
C791        F798   1.358       .  S
C792        C793   1.404       .  A
C792        H797   1.084       .  S
C793        C794   1.410   1_565  A
C794        F795   1.357       .  S
C799        C800   1.407       .  A
C799        C804   1.395       .  A
C799        H806   1.083       .  S
C800        C801   1.409       .  A
C801        C802   1.399       .  A
C801        F808   1.357       .  S
C802        C803   1.404       .  A
C802        H807   1.083       .  S
C803        C804   1.404       .  A
C804        F805   1.358   1_556  S
C809        C810   1.411       .  A
C809        C814   1.401       .  A
C809        H816   1.084       .  S
C810        C811   1.405       .  A
C811        C812   1.404       .  A
C811        F818   1.357       .  S
C812        C813   1.405       .  A
C812        H817   1.084       .  S
C813        C814   1.400       .  A
C814        F815   1.358       .  S
C819        C820   1.396       .  A
C819        C824   1.383       .  A
C819        H826   1.084       .  S
C820        C821   1.398       .  A
C821        C822   1.389       .  A
C821        F828   1.358       .  S
C822        C823   1.400       .  A
C822        H827   1.084       .  S
C823        C824   1.399       .  A
C824        F825   1.358       .  S
C829        C830   1.405       .  A
C829        C834   1.410       .  A
C829        H836   1.083       .  S
C830        C831   1.413       .  A
C831        C832   1.405       .  A
C831        F838   1.358       .  S
C832        C833   1.404       .  A
C832        H837   1.084       .  S
C833        C834   1.412       .  A
C834        F835   1.358       .  S
C839        C840   1.405   1_545  A
C839        C844   1.394       .  A
C839        H846   1.083       .  S
C840        C841   1.408       .  A
C841        C842   1.395   1_565  A
C841        F848   1.358       .  S
C842        C843   1.406       .  A
C842        H847   1.083       .  S
C843        C844   1.407       .  A
C844        F845   1.357       .  S
C849        C850   1.409       .  A
C849        C854   1.404       .  A
C849        H856   1.084       .  S
C850        C851   1.404       .  A
C851        C852   1.395       .  A
C851        F858   1.358       .  S
C852        C853   1.402       .  A
C852        H857   1.084       .  S
C853        C854   1.402       .  A
C854        F855   1.357       .  S
C859        C860   1.406       .  A
C859        C864   1.402       .  A
C859        H866   1.084       .  S
C860        C861   1.398       .  A
C861        C862   1.398       .  A
C861        F868   1.358       .  S
C862        C863   1.410       .  A
C862        H867   1.083       .  S
C863        C864   1.403       .  A
C864        F865   1.357       .  S
C869        C870   1.402       .  A
C869        C874   1.404       .  A
C869        H876   1.084       .  S
C870        C871   1.413       .  A
C871        C872   1.412       .  A
C871        F878   1.358       .  S
C872        C873   1.406       .  A
C872        H877   1.083       .  S
C873        C874   1.415       .  A
C874        F875   1.357       .  S
C879        C880   1.413       .  A
C879        C884   1.408       .  A
C879        H886   1.083       .  S
C880        C881   1.410       .  A
C881        C882   1.415       .  A
C881        F888   1.357       .  S
C882        C883   1.412       .  A
C882        H887   1.084       .  S
C883        C884   1.407       .  A
C884        F885   1.358       .  S
C889        C890   1.407       .  A
C889        C894   1.391       .  A
C889        H896   1.083       .  S
C890        C891   1.406       .  A
C891        C892   1.395       .  A
C891        F898   1.357       .  S
C892        C893   1.406       .  A
C892        H897   1.083       .  S
C893        C894   1.406       .  A
C894        F895   1.358   1_565  S
C899        C900   1.402       .  A
C899        C904   1.402       .  A
C899        H906   1.083       .  S
C900        C901   1.410       .  A
C901        C902   1.397       .  A
C901        F908   1.358       .  S
C902        C903   1.397       .  A
C902        H907   1.083   1_565  S
C903        C904   1.407       .  A
C904        F905   1.358       .  S
C909        C910   1.402       .  A
C909        C914   1.388       .  A
C909        H916   1.084       .  S
C910        C911   1.401       .  A
C911        C912   1.381       .  A
C911        F918   1.359       .  S
C912        C913   1.395       .  A
C912        H917   1.085       .  S
C913        C914   1.396       .  A
C914        F915   1.358       .  S
C919        C920   1.411       .  A
C919        C924   1.404       .  A
C919        H926   1.084       .  S
C920        C921   1.408       .  A
C921        C922   1.411       .  A
C921        F928   1.357       .  S
C922        C923   1.412       .  A
C922        H927   1.084       .  S
C923        C924   1.404       .  A
C924        F925   1.357       .  S
C929        C930   1.412       .  A
C929        C934   1.400       .  A
C929        H936   1.083       .  S
C930        C931   1.411       .  A
C931        C932   1.418   1_554  A
C931        F938   1.357       .  S
C932        C933   1.413       .  A
C932        H937   1.083       .  S
C933        C934   1.404   1_556  A
C934        F935   1.358       .  S
C939        C940   1.408       .  A
C939        C944   1.401       .  A
C939        H946   1.083       .  S
C940        C941   1.409       .  A
C941        C942   1.395       .  A
C941        F948   1.358       .  S
C942        C943   1.405       .  A
C942        H947   1.083       .  S
C943        C944   1.407       .  A
C944        F945   1.357       .  S
C949        C950   1.409       .  A
C949        C954   1.393       .  A
C949        H956   1.084       .  S
C950        C951   1.406       .  A
C951        C952   1.405       .  A
C951        F958   1.358       .  S
C952        C953   1.406       .  A
C952        H957   1.083       .  S
C953        C954   1.396       .  A
C954        F955   1.357       .  S
C959        C960   1.405       .  A
C959        C964   1.400       .  A
C959        H966   1.084       .  S
C960        C961   1.408       .  A
C961        C962   1.401       .  A
C961        F968   1.357       .  S
C962        C963   1.401       .  A
C962        H967   1.083       .  S
C963        C964   1.405       .  A
C964        F965   1.358       .  S
C969        C970   1.401       .  A
C969        C974   1.401       .  A
C969        H976   1.084       .  S
C970        C971   1.411       .  A
C971        C972   1.414       .  A
C971        F978   1.357       .  S
C972        C973   1.408       .  A
C972        H977   1.083       .  S
C973        C974   1.414       .  A
C974        F975   1.358       .  S
C979        C980   1.408       .  A
C979        C984   1.412       .  A
C979        H986   1.083       .  S
C980        C981   1.414       .  A
C981        C982   1.403       .  A
C981        F988   1.358       .  S
C982        C983   1.404       .  A
C982        H987   1.084   1_554  S
C983        C984   1.411       .  A
C984        F985   1.357       .  S
C989        C990   1.407       .  A
C989        C994   1.402       .  A
C989        H996   1.083       .  S
C990        C991   1.407       .  A
C991        C992   1.397       .  A
C991        F998   1.357       .  S
C992        C993   1.407       .  A
C992        H997   1.083       .  S
C993        C994   1.410       .  A
C994        F995   1.357       .  S
C999       C1000   1.409       .  A
C999       C1004   1.401       .  A
C999       H1006   1.083       .  S
C1000      C1001   1.404       .  A
C1001      C1002   1.398       .  A
C1001      F1008   1.358       .  S
C1002      C1003   1.403       .  A
C1002      H1007   1.084   1_554  S
C1003      C1004   1.400       .  A
C1004      F1005   1.357       .  S
C1009      C1010   1.394       .  A
C1009      C1014   1.386       .  A
C1009      H1016   1.084       .  S
C1010      C1011   1.398       .  A
C1011      C1012   1.381       .  A
C1011      F1018   1.358       .  S
C1012      C1013   1.397       .  A
C1012      H1017   1.084       .  S
C1013      C1014   1.405       .  A
C1014      F1015   1.358       .  S
C1019      C1020   1.407       .  A
C1019      C1024   1.405       .  A
C1019      H1026   1.084       .  S
C1020      C1021   1.398       .  A
C1021      C1022   1.397       .  A
C1021      F1028   1.357       .  S
C1022      C1023   1.409       .  A
C1022      H1027   1.084       .  S
C1023      C1024   1.405       .  A
C1024      F1025   1.358       .  S
C1029      C1030   1.409       .  A
C1029      C1034   1.413       .  A
C1029      H1036   1.083       .  S
C1030      C1031   1.413       .  A
C1031      C1032   1.403       .  A
C1031      F1038   1.357       .  S
C1032      C1033   1.404       .  A
C1032      H1037   1.084       .  S
C1033      C1034   1.411       .  A
C1034      F1035   1.357       .  S
C1039      C1040   1.402       .  A
C1039      C1044   1.405   1_565  A
C1039      H1046   1.083       .  S
C1040      C1041   1.413   1_565  A
C1041      C1042   1.414       .  A
C1041      F1048   1.358       .  S
C1042      C1043   1.408       .  A
C1042      H1047   1.083       .  S
C1043      C1044   1.414       .  A
C1044      F1045   1.357       .  S
C1049      C1050   1.407       .  A
C1049      C1054   1.404       .  A
C1049      H1056   1.083       .  S
C1050      C1051   1.410       .  A
C1051      C1052   1.398       .  A
C1051      F1058   1.358       .  S
C1052      C1053   1.406       .  A
C1052      H1057   1.083       .  S
C1053      C1054   1.411       .  A
C1054      F1055   1.357       .  S
C1059      C1060   1.403       .  A
C1059      C1064   1.396       .  A
C1059      H1066   1.083       .  S
C1060      C1061   1.407       .  A
C1061      C1062   1.406       .  A
C1061      F1068   1.357       .  S
C1062      C1063   1.405   1_545  A
C1062      H1067   1.083       .  S
C1063      C1064   1.404   1_565  A
C1064      F1065   1.358   1_545  S
C1069      C1070   1.402       .  A
C1069      C1074   1.403       .  A
C1069      H1076   1.083       .  S
C1070      C1071   1.411       .  A
C1071      C1072   1.401       .  A
C1071      F1078   1.358       .  S
C1072      C1073   1.397       .  A
C1072      H1077   1.083       .  S
C1073      C1074   1.409       .  A
C1074      F1075   1.357       .  S
C1079      C1080   1.406       .  A
C1079      C1084   1.411       .  A
C1079      H1086   1.083       .  S
C1080      C1081   1.413       .  A
C1081      C1082   1.405       .  A
C1081      F1088   1.358   1_545  S
C1082      C1083   1.404       .  A
C1082      H1087   1.084       .  S
C1083      C1084   1.412       .  A
C1084      F1085   1.358       .  S
C1089      C1090   1.411       .  A
C1089      C1094   1.411       .  A
C1089      H1096   1.084       .  S
C1090      C1091   1.406   1_565  A
C1091      C1092   1.407       .  A
C1091      F1098   1.357       .  S
C1092      C1093   1.411       .  A
C1092      H1097   1.083       .  S
C1093      C1094   1.409   1_545  A
C1094      F1095   1.357       .  S
C1099      C1100   1.408       .  A
C1099      C1104   1.398       .  A
C1099      H1106   1.083       .  S
C1100      C1101   1.407       .  A
C1101      C1102   1.395       .  A
C1101      F1108   1.357       .  S
C1102      C1103   1.406       .  A
C1102      H1107   1.083       .  S
C1103      C1104   1.407       .  A
C1104      F1105   1.358       .  S
C1109      C1110   1.409       .  A
C1109      C1114   1.396       .  A
C1109      H1116   1.084       .  S
C1110      C1111   1.405       .  A
C1111      C1112   1.405       .  A
C1111      F1118   1.357       .  S
C1112      C1113   1.406       .  A
C1112      H1117   1.083       .  S
C1113      C1114   1.399       .  A
C1114      F1115   1.358       .  S
C1119      C1120   1.403       .  A
C1119      C1124   1.387       .  A
C1119      H1126   1.084       .  S
C1120      C1121   1.399       .  A
C1121      C1122   1.383       .  A
C1121      F1128   1.358       .  S
C1122      C1123   1.397       .  A
C1122      H1127   1.084       .  S
C1123      C1124   1.395       .  A
C1124      F1125   1.358       .  S
C1129      C1130   1.400       .  A
C1129      C1134   1.400       .  A
C1129      H1136   1.083       .  S
C1130      C1131   1.406       .  A
C1131      C1132   1.403       .  A
C1131      F1138   1.358       .  S
C1132      C1133   1.406       .  A
C1132      H1137   1.084       .  S
C1133      C1134   1.409       .  A
C1134      F1135   1.357       .  S
C1139      C1140   1.413       .  A
C1139      C1144   1.414       .  A
C1139      H1146   1.084       .  S
C1140      C1141   1.403       .  A
C1141      C1142   1.405       .  A
C1141      F1148   1.357       .  S
C1142      C1143   1.412       .  A
C1142      H1147   1.083       .  S
C1143      C1144   1.410       .  A
C1144      F1145   1.357       .  S
C1149      C1150   1.411       .  A
C1149      C1154   1.415   1_655  A
C1149      H1156   1.084       .  S
C1150      C1151   1.405   1_655  A
C1151      C1152   1.403       .  A
C1151      F1158   1.358       .  S
C1152      C1153   1.411       .  A
C1152      H1157   1.083       .  S
C1153      C1154   1.411       .  A
C1154      F1155   1.357       .  S
C1159      C1160   1.408       .  A
C1159      C1164   1.396       .  A
C1159      H1166   1.083       .  S
C1160      C1161   1.406       .  A
C1161      C1162   1.392       .  A
C1161      F1168   1.358       .  S
C1162      C1163   1.406       .  A
C1162      H1167   1.083       .  S
C1163      C1164   1.403       .  A
C1164      F1165   1.357       .  S
C1169      C1170   1.409       .  A
C1169      C1174   1.394       .  A
C1169      H1176   1.084       .  S
C1170      C1171   1.405       .  A
C1171      C1172   1.405       .  A
C1171      F1178   1.357       .  S
C1172      C1173   1.406       .  A
C1172      H1177   1.083       .  S
C1173      C1174   1.397       .  A
C1174      F1175   1.358       .  S
C1179      C1180   1.402       .  A
C1179      C1184   1.400       .  A
C1179      H1186   1.084       .  S
C1180      C1181   1.411       .  A
C1181      C1182   1.400       .  A
C1181      F1188   1.358       .  S
C1182      C1183   1.399       .  A
C1182      H1187   1.083       .  S
C1183      C1184   1.405       .  A
C1184      F1185   1.358       .  S
C1189      C1190   1.412       .  A
C1189      C1194   1.406       .  A
C1189      H1196   1.083       .  S
C1190      C1191   1.411       .  A
C1191      C1192   1.415       .  A
C1191      F1198   1.357       .  S
C1192      C1193   1.411       .  A
C1192      H1197   1.084       .  S
C1193      C1194   1.405       .  A
C1194      F1195   1.358       .  S
C1199      C1200   1.410       .  A
C1199      C1204   1.407       .  A
C1199      H1206   1.084       .  S
C1200      C1201   1.406       .  A
C1201      C1202   1.407       .  A
C1201      F1208   1.357       .  S
C1202      C1203   1.410       .  A
C1202      H1207   1.084       .  S
C1203      C1204   1.406       .  A
C1204      F1205   1.357   1_455  S
C1209      C1210   1.407       .  A
C1209      C1214   1.398       .  A
C1209      H1216   1.083       .  S
C1210      C1211   1.409       .  A
C1211      C1212   1.397       .  A
C1211      F1218   1.357       .  S
C1212      C1213   1.403       .  A
C1212      H1217   1.083       .  S
C1213      C1214   1.408       .  A
C1214      F1215   1.358       .  S
C1219      C1220   1.407       .  A
C1219      C1224   1.403       .  A
C1219      H1226   1.083   1_455  S
C1220      C1221   1.399       .  A
C1221      C1222   1.402       .  A
C1221      F1228   1.357       .  S
C1222      C1223   1.411       .  A
C1222      H1227   1.084       .  S
C1223      C1224   1.404       .  A
C1224      F1225   1.358       .  S
C1229      C1230   1.394       .  A
C1229      C1234   1.378       .  A
C1229      H1236   1.085       .  S
C1230      C1231   1.396       .  A
C1231      C1232   1.388       .  A
C1231      F1238   1.358       .  S
C1232      C1233   1.401       .  A
C1232      H1237   1.084       .  S
C1233      C1234   1.399       .  A
C1234      F1235   1.358       .  S
C1239      C1240   1.396       .  A
C1239      C1244   1.396       .  A
C1239      H1246   1.083       .  S
C1240      C1241   1.408       .  A
C1241      C1242   1.403       .  A
C1241      F1248   1.357       .  S
C1242      C1243   1.402       .  A
C1242      H1247   1.083       .  S
C1243      C1244   1.411       .  A
C1244      F1245   1.359       .  S
