geometry optimzed in LAMMPS
_audit_creation_date              2020-11-30 
_audit_creation_method            'lammps2cif' 
_symmetry_space_group_name_H-M    'P1' 
_symmetry_Int_Tables_number       1 
_symmetry_cell_setting            triclinic 
loop_ 
_symmetry_equiv_pos_as_xyz 
  x,y,z 
_cell_length_a                    67.38996004 
_cell_length_b                    65.24870413918444 
_cell_length_c                    39.41109197732337 
_cell_angle_alpha                 89.70980874063247 
_cell_angle_beta                  90.43677252469865 
_cell_angle_gamma                 122.51339218011935 
loop_ 
_atom_site_label 
_atom_site_type_symbol 
_atom_site_fract_x 
_atom_site_fract_y 
_atom_site_fract_z 
_atom_site_charge 
Zr1        Zr  0.60762934  0.43275921  0.50368446     2.17500
O2          O  0.64780484  0.46220586  0.52209140    -0.51300
O3          O  0.60319495  0.39621738  0.52775887    -0.74500
O4          O  0.60837446  0.43867406  0.56515015    -0.81300
O5          O  0.62640784  0.42691403  0.41541946    -0.83100
O6          O  0.57566652  0.43915462  0.57666844    -0.78700
O7          O  0.63751273  0.43124665  0.47097444    -0.90300
O8          O  0.56603046  0.36475876  0.51587775    -0.76300
O9          O  0.56783708  0.40932530  0.52195704    -0.85800
O10         O  0.58582708  0.40217790  0.46202656    -0.85500
O11         O  0.59537538  0.46113334  0.50835960    -0.72200
O12         O  0.61157778  0.45440371  0.45208247    -0.84400
Zr13       Zr  0.53649577  0.42849906  0.43308766     2.26400
Zr14       Zr  0.55510623  0.43691829  0.52541711     2.06300
Zr15       Zr  0.58883711  0.42333518  0.41106426     2.10000
Zr16       Zr  0.54618819  0.37916412  0.48030604     1.78800
O17         O  0.61451067  0.44879510  0.36535512    -0.93200
O18         O  0.51894703  0.35810808  0.52686360    -0.41000
O19         O  0.54858470  0.39984033  0.42842247    -0.77600
O20         O  0.53230412  0.40614402  0.48421510    -0.96300
O21         O  0.55835560  0.45869859  0.47489973    -0.89600
O22         O  0.57641683  0.45122970  0.41470470    -0.92400
C23         C  0.58645128  0.37378722  0.52960019     1.01300
C24         C  0.64056195  0.42926427  0.43921636     1.14200
C25         C  0.59420801  0.43966254  0.58578122     1.05000
O26         O  0.52735366  0.41136820  0.56926768    -0.94600
O27         O  0.51833054  0.43465429  0.52126933    -0.90300
O28         O  0.50973371  0.43573284  0.46556152    -0.83500
C29         C  0.50600635  0.43600675  0.49757147     1.11700
O30         O  0.63565880  0.51525852  0.47699823    -0.96600
Zr31       Zr  0.59793024  0.48159610  0.45616314     1.88900
O32         O  0.54247082  0.46441884  0.40369159    -0.73200
O33         O  0.56461347  0.47472516  0.55226675    -0.52500
O34         O  0.59504254  0.51048299  0.49134143    -0.97200
O35         O  0.62786059  0.50257220  0.41263364    -0.54400
O36         O  0.57912137  0.49592958  0.41798995    -0.73700
C37         C  0.55949633  0.48682300  0.40184510     0.98600
O38         O  0.49525462  0.39924169  0.41928633    -0.62600
O39         O  0.58220002  0.38618000  0.38555936    -0.57400
O40         O  0.53403415  0.41960875  0.37258575    -0.94000
O41         O  0.56557734  0.41694720  0.36082546    -0.92500
O42         O  0.54671700  0.34987722  0.44279712    -0.92800
O43         O  0.50747659  0.34575629  0.46241626    -0.91600
C44         C  0.54702381  0.41660170  0.35210918     1.17500
H45         H  0.59203917  0.39198018  0.45898556     0.33400
H46         H  0.51598117  0.39682921  0.49092741     0.44300
H47         H  0.57803874  0.45853189  0.39269556     0.37800
H48         H  0.60460424  0.47306535  0.52561490     0.34300
H49         H  0.51860198  0.34284188  0.52988227     0.26000
H50         H  0.55545112  0.48000185  0.53936662     0.32000
H51         H  0.57927522  0.50748847  0.48633718     0.37900
H52         H  0.56011497  0.34881334  0.45070414     0.32400
H53         H  0.56503750  0.37606454  0.38121132     0.31200
H54         H  0.61504887  0.43736455  0.34953815     0.32900
H55         H  0.62305098  0.51225139  0.39965757     0.31900
H56         H  0.50358522  0.35209044  0.44226400     0.35900
H57         H  0.49538692  0.38764561  0.40333951     0.28600
H58         H  0.65117192  0.45386795  0.54015396     0.32800
H59         H  0.63766819  0.53007700  0.46645729     0.35700
H60         H  0.58928497  0.39114564  0.36272027     0.28300
H61         H  0.48851745  0.38967132  0.44035036     0.41200
H62         H  0.52795378  0.42289023  0.58613337     0.31200
H63         H  0.52731989  0.36784043  0.54725173     0.38800
H64         H  0.62526052  0.48964218  0.39676524     0.30700
H65         H  0.55686819  0.46974996  0.57468055     0.30800
H66         H  0.64691995  0.47501366  0.53401033     0.31000
Zr67       Zr  0.60187070  0.43196770  0.01480479     2.17500
O68         O  0.63645489  0.45878959  0.04937371    -0.51300
O69         O  0.59845222  0.39387539  0.02861897    -0.74500
O70         O  0.59123673  0.42805354  0.07464984    -0.81300
O71         O  0.63543497  0.43637854  0.93550249    -0.83100
O72         O  0.55620457  0.42525088  0.07771142    -0.78700
O73         O  0.63737405  0.43605529  0.99316320    -0.90300
O74         O  0.56502168  0.36313403  0.00393052    -0.76300
O75         O  0.56045894  0.40533797  0.01964804    -0.85800
O76         O  0.58871560  0.40725814  0.96528250    -0.85500
O77         O  0.58733510  0.45844215  0.01829017    -0.72200
O78         O  0.61377845  0.45991608  0.96794836    -0.84400
Zr79       Zr  0.54310613  0.43420463  0.92578924     2.26400
Zr80       Zr  0.54556700  0.43113199  0.02172123     2.06300
Zr81       Zr  0.59972504  0.43450753  0.91874525     2.10000
Zr82       Zr  0.54734942  0.38095202  0.97015683     1.78800
O83         O  0.63265616  0.46795236  0.88837734    -0.93200
O84         O  0.51632005  0.35341885  0.00913501    -0.41000
O85         O  0.55776188  0.40775476  0.92222893    -0.77600
O86         O  0.53104746  0.40594382  0.97237074    -0.96300
O87         O  0.55655776  0.45862688  0.97533886    -0.89600
O88         O  0.58475153  0.46016869  0.92106282    -0.92400
C89         C  0.58375486  0.37132339  0.02208362     1.01300
C90         C  0.64547183  0.43673120  0.96354733     1.14200
C91         C  0.57360623  0.42534497  0.09116979     1.05000
O92         O  0.50919784  0.39785901  0.04601109    -0.94600
O93         O  0.51442463  0.43712052  0.00662572    -0.90300
O94         O  0.51434737  0.44233186  0.94953698    -0.83500
C95         C  0.50697123  0.44204263  0.97972356     1.11700
O96         O  0.63018435  0.51271776  0.00747968    -0.96600
Zr97       Zr  0.59776822  0.48511212  0.96998687     1.88900
O98         O  0.55220407  0.47216992  0.90057721    -0.73200
O99         O  0.54757393  0.46135061  0.06025341    -0.52500
O100        O  0.58847518  0.51100584  0.00123221    -0.97200
O101        O  0.63284788  0.51217715  0.93692403    -0.54400
O102        O  0.58395711  0.50297853  0.92828426    -0.73700
C103        C  0.56766161  0.49478359  0.90543465     0.98600
O104        O  0.50514855  0.40695856  0.89861850    -0.62600
O105        O  0.60035079  0.40362141  0.88513396    -0.57400
O106        O  0.55067432  0.43221531  0.86577869    -0.94000
O107        O  0.58558118  0.43460414  0.86221459    -0.92500
O108        O  0.55314258  0.35653813  0.92974480    -0.92800
O109        O  0.51080754  0.35119261  0.94172205    -0.91600
C110        C  0.56758730  0.43349775  0.84891330     1.17500
H111        H  0.59601943  0.39803560  0.96299121     0.33400
H112        H  0.51407906  0.39578295  0.97316185     0.44300
H113        H  0.58936696  0.46993328  0.90070404     0.37800
H114        H  0.59325165  0.46802196  0.03874503     0.34300
H115        H  0.51756968  0.33899813  0.01066681     0.26000
H116        H  0.53549276  0.45183130  0.07767307     0.32000
H117        H  0.58223894  0.50259910  0.02319455     0.37900
H118        H  0.54716075  0.34079876  0.94138325     0.32400
H119        H  0.61550119  0.41255295  0.87287125     0.31200
H120        H  0.63631410  0.46005165  0.87024121     0.32900
H121        H  0.63360205  0.52774877  0.93601788     0.31900
H122        H  0.50566971  0.36099667  0.92986248     0.35900
H123        H  0.50770481  0.39635564  0.88386495     0.28600
H124        H  0.63695128  0.44818679  0.06698030     0.32800
H125        H  0.63468190  0.52928762  0.00059381     0.35700
H126        H  0.60236554  0.39347633  0.90182058     0.28300
H127        H  0.49496745  0.39607346  0.91702986     0.41200
H128        H  0.50530213  0.40547337  0.06427627     0.31200
H129        H  0.52159216  0.36124345  0.03166620     0.38800
H130        H  0.62879844  0.50588217  0.91343860     0.30700
H131        H  0.56276768  0.46844679  0.07248261     0.30800
H132        H  0.63244132  0.46923707  0.06178143     0.31000
Zr133      Zr  0.40281009  0.57813047  0.24196671     2.17500
O134        O  0.36444908  0.55227504  0.26825856    -0.51300
O135        O  0.40790310  0.61674200  0.25660187    -0.74500
O136        O  0.40730096  0.57779466  0.30384701    -0.81300
O137        O  0.37917766  0.57993096  0.15517099    -0.83100
O138        O  0.43833907  0.57376449  0.31291886    -0.78700
O139        O  0.37123615  0.57812312  0.21156335    -0.90300
O140        O  0.44469757  0.64730450  0.24159428    -0.76300
O141        O  0.44337331  0.60038196  0.25698083    -0.85800
O142        O  0.42315165  0.60644934  0.19724266    -0.85500
O143        O  0.41301032  0.54807969  0.24722597    -0.72200
O144        O  0.39470452  0.55384782  0.19175316    -0.84400
Zr145      Zr  0.46752148  0.57511871  0.16739850     2.26400
Zr146      Zr  0.45414975  0.57106274  0.26046407     2.06300
Zr147      Zr  0.41624443  0.58279446  0.14785361     2.10000
Zr148      Zr  0.46352609  0.62866638  0.21271312     1.78800
O149        O  0.38796737  0.55828906  0.10365069    -0.93200
O150        O  0.49011052  0.65008969  0.26013394    -0.41000
O151        O  0.45719437  0.60518827  0.16225586    -0.77600
O152        O  0.47582967  0.60007450  0.21690816    -0.96300
O153        O  0.44672946  0.54684109  0.21151011    -0.89600
O154        O  0.42678588  0.55345977  0.15219117    -0.92400
C155        C  0.42420254  0.63930235  0.25427675     1.01300
C156        C  0.36652690  0.57889010  0.18007384     1.14200
C157        C  0.42192569  0.57637395  0.32336627     1.05000
O158        O  0.48737056  0.59778505  0.29721616    -0.94600
O159        O  0.48573671  0.56442920  0.25392848    -0.90300
O160        O  0.49181555  0.56281934  0.19764431    -0.83500
C161        C  0.49567645  0.56074338  0.22923573     1.11700
O162        O  0.36836267  0.49614995  0.22176767    -0.96600
Zr163      Zr  0.40636127  0.52500074  0.19630019     1.88900
O164        O  0.45793581  0.53778498  0.13940556    -0.73200
O165        O  0.44261591  0.53480279  0.29381413    -0.52500
O166        O  0.40879803  0.49588877  0.23219920    -0.97200
O167        O  0.37542903  0.50139670  0.15456137    -0.54400
O168        O  0.42204482  0.50759563  0.15832397    -0.73700
C169        C  0.44054448  0.51555749  0.14011604     0.98600
O170        O  0.50829748  0.60191843  0.14988494    -0.62600
O171        O  0.42423414  0.62034064  0.12149078    -0.57400
O172        O  0.46795257  0.58288825  0.10677450    -0.94000
O173        O  0.43651809  0.58613691  0.09593572    -0.92500
O174        O  0.46660129  0.65819459  0.17147888    -0.92800
O175        O  0.50343252  0.65863998  0.19461218    -0.91600
C176        C  0.45456742  0.58584635  0.08667435     1.17500
H177        H  0.41743968  0.61702463  0.19326852     0.33400
H178        H  0.49244764  0.60869543  0.22214805     0.44300
H179        H  0.42379493  0.54529801  0.13062843     0.37800
H180        H  0.40434096  0.53715702  0.26568860     0.34300
H181        H  0.49169244  0.66607641  0.26071369     0.26000
H182        H  0.44466247  0.52417113  0.27835205     0.32000
H183        H  0.42172281  0.49477413  0.22260831     0.37900
H184        H  0.45497776  0.66212480  0.17868434     0.32400
H185        H  0.44031523  0.62803799  0.11217512     0.31200
H186        H  0.38196911  0.54129053  0.11026193     0.32900
H187        H  0.38346541  0.50585800  0.13234494     0.31900
H188        H  0.50770484  0.64954758  0.17948196     0.35900
H189        H  0.50890701  0.61612304  0.13960202     0.28600
H190        H  0.36360736  0.56247149  0.28600616     0.32800
H191        H  0.36472412  0.47985085  0.21512792     0.35700
H192        H  0.41383453  0.61495295  0.10124951     0.28300
H193        H  0.51730738  0.60826447  0.17133942     0.41200
H194        H  0.48668259  0.58715779  0.31581214     0.31200
H195        H  0.48094299  0.64158425  0.28068495     0.38800
H196        H  0.36580281  0.50869918  0.15431702     0.30700
H197        H  0.45530159  0.54018668  0.31093547     0.30800
H198        H  0.36560011  0.53979286  0.28088666     0.31000
Zr199      Zr  0.41446610  0.58492714  0.74314953     2.17500
O200        O  0.37676044  0.56044879  0.77176564    -0.51300
O201        O  0.42350807  0.62487819  0.76000237    -0.74500
O202        O  0.42046215  0.58511672  0.80428271    -0.81300
O203        O  0.38959639  0.58741334  0.65798030    -0.83100
O204        O  0.45051999  0.57937244  0.81301776    -0.78700
O205        O  0.38281007  0.58631961  0.71464094    -0.90300
O206        O  0.46033036  0.65269742  0.74114614    -0.76300
O207        O  0.45541028  0.60527231  0.75536339    -0.85800
O208        O  0.43472605  0.61193858  0.69721812    -0.85500
O209        O  0.42246463  0.55316835  0.74800298    -0.72200
O210        O  0.40375070  0.55930299  0.69412396    -0.84400
Zr211      Zr  0.47453760  0.57620691  0.66441572     2.26400
Zr212      Zr  0.46385957  0.57432625  0.75907813     2.06300
Zr213      Zr  0.42463078  0.58677490  0.64872253     2.10000
Zr214      Zr  0.47556713  0.63203919  0.70962101     1.78800
O215        O  0.39308192  0.55853260  0.61068753    -0.93200
O216        O  0.50431341  0.65382340  0.75469339    -0.41000
O217        O  0.46604960  0.60763375  0.65955305    -0.77600
O218        O  0.48540448  0.60174015  0.71375660    -0.96300
O219        O  0.45420833  0.54920541  0.71019878    -0.89600
O220        O  0.43349218  0.55617146  0.65223848    -0.92400
C221        C  0.44121762  0.64676129  0.75653231     1.01300
C222        C  0.37765498  0.58711862  0.68331895     1.14200
C223        C  0.43480667  0.58314347  0.82355631     1.05000
O224        O  0.49811408  0.60099902  0.79421131    -0.94600
O225        O  0.49500236  0.56744109  0.75037181    -0.90300
O226        O  0.49993552  0.56489401  0.69387632    -0.83500
C227        C  0.50459974  0.56358095  0.72539721     1.11700
O228        O  0.37598232  0.49987774  0.72415002    -0.96600
Zr229      Zr  0.41347259  0.52887236  0.69754292     1.88900
O230        O  0.46163028  0.53776176  0.63738420    -0.73200
O231        O  0.45219016  0.53787523  0.79204515    -0.52500
O232        O  0.41703457  0.50051843  0.73354783    -0.97200
O233        O  0.37992950  0.50777544  0.65891621    -0.54400
O234        O  0.42520628  0.50910746  0.65658229    -0.73700
C235        C  0.44321761  0.51614522  0.63755816     0.98600
O236        O  0.51452418  0.60007270  0.64259699    -0.62600
O237        O  0.43204408  0.62271220  0.61793375    -0.57400
O238        O  0.47275657  0.58252439  0.60328566    -0.94000
O239        O  0.44219389  0.58763416  0.59563609    -0.92500
O240        O  0.47908504  0.66272926  0.67024207    -0.92800
O241        O  0.51524052  0.65788789  0.68748565    -0.91600
C242        C  0.45880981  0.58553824  0.58445300     1.17500
H243        H  0.42990948  0.62333613  0.69394344     0.33400
H244        H  0.50209943  0.60956460  0.71792090     0.44300
H245        H  0.42929325  0.54762824  0.63087416     0.37800
H246        H  0.41393512  0.54276956  0.76693561     0.34300
H247        H  0.49485210  0.65082156  0.77536242     0.26000
H248        H  0.45695562  0.52862648  0.77817464     0.32000
H249        H  0.42869765  0.49816787  0.72210699     0.37900
H250        H  0.46587748  0.66467630  0.67575343     0.32400
H251        H  0.41982800  0.61631948  0.59992512     0.31200
H252        H  0.39319304  0.56877813  0.59197995     0.32900
H253        H  0.38687833  0.51022229  0.63607157     0.31900
H254        H  0.51641478  0.64795213  0.66966283     0.35900
H255        H  0.51500231  0.58997698  0.62433772     0.28600
H256        H  0.37586632  0.57186959  0.78716839     0.32800
H257        H  0.37283056  0.48361567  0.71843281     0.35700
H258        H  0.42751187  0.63126666  0.63368422     0.28300
H259        H  0.51546791  0.61394846  0.63062689     0.41200
H260        H  0.49742101  0.59060402  0.81314769     0.31200
H261        H  0.51187964  0.64453475  0.75848567     0.38800
H262        H  0.37283586  0.51769933  0.65877867     0.30700
H263        H  0.46314207  0.54372552  0.81167510     0.30800
H264        H  0.37852719  0.54939687  0.78698280     0.31000
Zr265      Zr  0.11066790  0.57544829  0.18623266     2.17500
O266        O  0.09566497  0.59846217  0.21146823    -0.51300
O267        O  0.08411896  0.53589090  0.21083739    -0.74500
O268        O  0.07277747  0.56210772  0.15792825    -0.81300
O269        O  0.15474902  0.58622850  0.25469272    -0.83100
O270        O  0.07982995  0.56582866  0.10117882    -0.78700
O271        O  0.11781481  0.57853517  0.24727259    -0.90300
O272        O  0.09261110  0.50956624  0.18792142    -0.76300
O273        O  0.10452576  0.55075965  0.13828609    -0.85800
O274        O  0.13286215  0.55724279  0.19607536    -0.85500
O275        O  0.12499674  0.60288653  0.13865099    -0.72200
O276        O  0.15112859  0.60841278  0.19277934    -0.84400
Zr277      Zr  0.18132691  0.59143803  0.10586205     2.26400
Zr278      Zr  0.11977247  0.57781723  0.09109763     2.06300
Zr279      Zr  0.17296402  0.58962356  0.20097350     2.10000
Zr280      Zr  0.12586038  0.53204826  0.14878138     1.78800
O281        O  0.20010033  0.62613898  0.23303452    -0.93200
O282        O  0.09343700  0.50129913  0.11405864    -0.41000
O283        O  0.16675318  0.56407267  0.15358094    -0.77600
O284        O  0.14092358  0.55831543  0.09986545    -0.96300
O285        O  0.15973618  0.61018903  0.09644764    -0.89600
O286        O  0.18771973  0.61642540  0.15379986    -0.92400
C287        C  0.08081140  0.51469938  0.20784532     1.01300
C288        C  0.13511034  0.58205359  0.26593889     1.14200
C289        C  0.06621178  0.56052650  0.12668078     1.05000
O290        O  0.09576956  0.54317973  0.05402593    -0.94600
O291        O  0.13894027  0.58540194  0.03692103    -0.90300
O292        O  0.17531493  0.59181497  0.04479659    -0.83500
C293        C  0.15871382  0.58978851  0.02591924     1.11700
O294        O  0.15034098  0.65608984  0.17366531    -0.96600
Zr295      Zr  0.16576389  0.63473755  0.14433968     1.88900
O296        O  0.21095851  0.63263810  0.08781873    -0.73200
O297        O  0.11131588  0.60489888  0.06067794    -0.52500
O298        O  0.15731513  0.65624555  0.10171733    -0.97200
O299        O  0.19538065  0.66708629  0.18076312    -0.54400
O300        O  0.20111001  0.65796381  0.11061818    -0.73700
C301        C  0.21425885  0.65376431  0.09245014     0.98600
O302        O  0.19456156  0.56860091  0.07504488    -0.62600
O303        O  0.17994508  0.56358294  0.23694281    -0.57400
O304        O  0.21602557  0.59565794  0.13309914    -0.94000
O305        O  0.21109797  0.59596567  0.19014098    -0.92500
O306        O  0.13694881  0.50997377  0.18623041    -0.92800
O307        O  0.13758959  0.50814614  0.11754874    -0.91600
C308        C  0.22284334  0.59703322  0.16406684     1.17500
H309        H  0.12820633  0.54769559  0.21664117     0.33400
H310        H  0.13926935  0.54880157  0.08012801     0.44300
H311        H  0.20423614  0.62856050  0.15696859     0.37800
H312        H  0.11555115  0.60986489  0.13566755     0.34300
H313        H  0.08978783  0.48558728  0.12365203     0.26000
H314        H  0.12679034  0.61828124  0.05238137     0.32000
H315        H  0.14026077  0.64955358  0.10377558     0.37900
H316        H  0.15436602  0.51993443  0.18683538     0.32400
H317        H  0.18781477  0.57340776  0.25748406     0.31200
H318        H  0.21076136  0.62228653  0.24474773     0.32900
H319        H  0.20945348  0.66602187  0.17918228     0.31900
H320        H  0.15453582  0.51962698  0.11294995     0.35900
H321        H  0.19668440  0.55899821  0.09256582     0.28600
H322        H  0.07993237  0.58598365  0.22020564     0.32800
H323        H  0.15899627  0.67276655  0.16419992     0.35700
H324        H  0.16416627  0.55053964  0.24479315     0.28300
H325        H  0.18060174  0.55624697  0.06199940     0.41200
H326        H  0.09046241  0.54958317  0.03565243     0.31200
H327        H  0.07974521  0.50225673  0.12026934     0.38800
H328        H  0.18962053  0.66171357  0.20416349     0.30700
H329        H  0.10276310  0.59582810  0.03995622     0.30800
H330        H  0.09243455  0.60592347  0.19200601     0.31000
Zr331      Zr  0.11250999  0.57327257  0.68275234     2.17500
O332        O  0.09831501  0.59900413  0.69987670    -0.51300
O333        O  0.08549414  0.53618930  0.71361895    -0.74500
O334        O  0.07452312  0.55854787  0.65402415    -0.81300
O335        O  0.15747656  0.59049168  0.75271276    -0.83100
O336        O  0.08113829  0.55740688  0.59782678    -0.78700
O337        O  0.12113680  0.58376596  0.74252894    -0.90300
O338        O  0.09131932  0.50687626  0.69497861    -0.76300
O339        O  0.10483212  0.54361384  0.64123324    -0.85800
O340        O  0.13359034  0.55498327  0.69956738    -0.85500
O341        O  0.12715698  0.59583891  0.63059653    -0.72200
O342        O  0.15350525  0.60572129  0.68465200    -0.84400
Zr343      Zr  0.18125037  0.57853936  0.60725010     2.26400
Zr344      Zr  0.12005821  0.56562652  0.58973327     2.06300
Zr345      Zr  0.17411641  0.58664486  0.70078451     2.10000
Zr346      Zr  0.12564020  0.52531359  0.65812858     1.78800
O347        O  0.20413160  0.62534238  0.72556901    -0.93200
O348        O  0.09528066  0.49240956  0.62326956    -0.41000
O349        O  0.16673831  0.55651477  0.65955405    -0.77600
O350        O  0.14045564  0.54612418  0.60492752    -0.96300
O351        O  0.16061943  0.59720939  0.59053466    -0.89600
O352        O  0.18912973  0.60835078  0.64896170    -0.92400
C353        C  0.08064620  0.51425820  0.71323555     1.01300
C354        C  0.13843989  0.58872409  0.76225480     1.14200
C355        C  0.06784383  0.55474843  0.62270033     1.05000
O356        O  0.09446049  0.52693923  0.56123545    -0.94600
O357        O  0.13800915  0.56726326  0.53687420    -0.90300
O358        O  0.17454944  0.57441295  0.54585048    -0.83500
C359        C  0.15750636  0.57072322  0.52642491     1.11700
O360        O  0.15743794  0.65512912  0.64970444    -0.96600
Zr361      Zr  0.16853719  0.62693226  0.63171384     1.88900
O362        O  0.21246813  0.61710426  0.58487521    -0.73200
O363        O  0.11227861  0.58841353  0.54829048    -0.52500
O364        O  0.15804672  0.64226193  0.58275320    -0.97200
O365        O  0.19815803  0.66130298  0.66538434    -0.54400
O366        O  0.20404927  0.64569636  0.59678203    -0.73700
C367        C  0.21686228  0.63878737  0.58331961     0.98600
O368        O  0.19357391  0.55271178  0.58333474    -0.62600
O369        O  0.17922270  0.56280304  0.74371976    -0.57400
O370        O  0.21544325  0.58361735  0.63753774    -0.94000
O371        O  0.21054644  0.58836869  0.69341666    -0.92500
O372        O  0.13622493  0.50863902  0.70520300    -0.92800
O373        O  0.13580054  0.49610356  0.64195126    -0.91600
C374        C  0.22202773  0.58682285  0.66885986     1.17500
H375        H  0.12888948  0.54756442  0.72171949     0.33400
H376        H  0.13819662  0.53466846  0.58756252     0.44300
H377        H  0.20579115  0.62019058  0.65115183     0.37800
H378        H  0.11826588  0.60301605  0.62475826     0.34300
H379        H  0.08379066  0.49708538  0.61843252     0.26000
H380        H  0.09772489  0.57608052  0.53630451     0.32000
H381        H  0.16490594  0.63894858  0.56301094     0.37900
H382        H  0.15364932  0.51829608  0.70560663     0.32400
H383        H  0.18956575  0.57475383  0.76116348     0.31200
H384        H  0.20740734  0.62109324  0.74818300     0.32900
H385        H  0.20813526  0.67405918  0.64862625     0.31900
H386        H  0.15164295  0.50611455  0.63181933     0.35900
H387        H  0.19424783  0.54350005  0.60287289     0.28600
H388        H  0.08268841  0.58770972  0.71000140     0.32800
H389        H  0.16737321  0.67014546  0.63632415     0.35700
H390        H  0.16372656  0.55290220  0.75487154     0.28300
H391        H  0.17988518  0.54030288  0.56991494     0.41200
H392        H  0.08974147  0.53121279  0.53981715     0.31200
H393        H  0.10282003  0.49393843  0.60113718     0.38800
H394        H  0.20844743  0.65614051  0.67482010     0.30700
H395        H  0.10760559  0.59792605  0.56170931     0.30800
H396        H  0.09489096  0.60446225  0.67837388     0.31000
Zr397      Zr  0.89097861  0.41783401  0.42259333     2.17500
O398        O  0.90225864  0.38970306  0.44076610    -0.51300
O399        O  0.92018790  0.45431718  0.45296365    -0.74500
O400        O  0.92746669  0.42873573  0.39370341    -0.81300
O401        O  0.84814079  0.40370822  0.49260210    -0.83100
O402        O  0.92132718  0.43105327  0.33736061    -0.78700
O403        O  0.88360016  0.40852456  0.48279704    -0.90300
O404        O  0.91592756  0.48515155  0.43613075    -0.76300
O405        O  0.90027345  0.44788322  0.38042025    -0.85800
O406        O  0.87272078  0.43885297  0.43946605    -0.85500
O407        O  0.87444544  0.39544101  0.37061740    -0.72200
O408        O  0.84945061  0.38742235  0.42540734    -0.84400
Zr409      Zr  0.82434608  0.41833153  0.34814371     2.26400
Zr410      Zr  0.88330309  0.42595925  0.32906756     2.06300
Zr411      Zr  0.83172413  0.40916206  0.44148595     2.10000
Zr412      Zr  0.88233838  0.46896722  0.39764249     1.78800
O413        O  0.80026737  0.37105397  0.46574423    -0.93200
O414        O  0.91492403  0.50078024  0.36464933    -0.41000
O415        O  0.84076265  0.43996193  0.40030730    -0.77600
O416        O  0.86592063  0.44830710  0.34476233    -0.96300
O417        O  0.84199821  0.39670799  0.33093204    -0.89600
O418        O  0.81477838  0.38788452  0.38998897    -0.92400
C419        C  0.92597243  0.47656556  0.45372140     1.01300
C420        C  0.86679135  0.40467196  0.50241707     1.14200
C421        C  0.93409450  0.43221681  0.36253433     1.05000
O422        O  0.91071549  0.46252932  0.29741657    -0.94600
O423        O  0.86521223  0.42659831  0.27637482    -0.90300
O424        O  0.83048466  0.42334379  0.28680260    -0.83500
C425        C  0.84639921  0.42539305  0.26669486     1.11700
O426        O  0.84326146  0.33809926  0.39121983    -0.96600
Zr427      Zr  0.83257067  0.36661983  0.37275558     1.88900
O428        O  0.79085603  0.38067576  0.32652811    -0.73200
O429        O  0.88765850  0.39948287  0.29070430    -0.52500
O430        O  0.83814534  0.34634006  0.32552197    -0.97200
O431        O  0.80273422  0.33382430  0.40802652    -0.54400
O432        O  0.79616704  0.34991673  0.33952341    -0.73700
C433        C  0.78444375  0.35826611  0.32595414     0.98600
O434        O  0.81404505  0.44639666  0.32561360    -0.62600
O435        O  0.82923835  0.43356114  0.48590014    -0.57400
O436        O  0.79261207  0.41743020  0.37956453    -0.94000
O437        O  0.79741446  0.41136183  0.43516977    -0.92500
O438        O  0.87557784  0.48991834  0.44264345    -0.92800
O439        O  0.87274036  0.49802092  0.37765785    -0.91600
C440        C  0.78663011  0.41468105  0.41103845     1.17500
H441        H  0.87803147  0.44622918  0.46157035     0.33400
H442        H  0.86879810  0.46005441  0.32729260     0.44300
H443        H  0.79797307  0.37704355  0.39256582     0.37800
H444        H  0.88219843  0.38705530  0.36481573     0.34300
H445        H  0.92814354  0.49853814  0.36889093     0.26000
H446        H  0.87135572  0.38661029  0.28440904     0.32000
H447        H  0.82370019  0.32983203  0.32509907     0.37900
H448        H  0.85837456  0.47999677  0.44643357     0.32400
H449        H  0.81792163  0.42158742  0.50247410     0.31200
H450        H  0.80047335  0.37440275  0.49026115     0.32900
H451        H  0.78831649  0.33410486  0.40457176     0.31900
H452        H  0.85910504  0.48853442  0.36225674     0.35900
H453        H  0.81620995  0.45708241  0.34491833     0.28600
H454        H  0.91771743  0.40002086  0.45211509     0.32800
H455        H  0.85308964  0.34565682  0.41174185     0.35700
H456        H  0.84461589  0.44169486  0.49782311     0.28300
H457        H  0.82690716  0.45727159  0.30991823     0.41200
H458        H  0.92025154  0.45804748  0.28415303     0.31200
H459        H  0.91043249  0.49590296  0.34069382     0.38800
H460        H  0.80768741  0.33951292  0.43162389     0.30700
H461        H  0.89432480  0.40916666  0.26971288     0.30800
H462        H  0.90578150  0.38417948  0.41959668     0.31000
Zr463      Zr  0.89062927  0.42593887  0.92596603     2.17500
O464        O  0.89920985  0.39708180  0.95018605    -0.51300
O465        O  0.91945190  0.46233998  0.95667512    -0.74500
O466        O  0.92828610  0.43539153  0.90119101    -0.81300
O467        O  0.84596658  0.42007470  0.99022603    -0.83100
O468        O  0.92343859  0.43244752  0.84387805    -0.78700
O469        O  0.87920579  0.41920489  0.98536453    -0.83100
O470        O  0.91897173  0.49374111  0.93229161    -0.76300
O471        O  0.90331333  0.45318892  0.87932613    -0.85800
O472        O  0.87443648  0.45027223  0.93428066    -0.85500
O473        O  0.87460153  0.40037374  0.87661155    -0.72200
O474        O  0.84838066  0.39870679  0.92732478    -0.84400
Zr475      Zr  0.83046408  0.42707845  0.83850680     2.26400
Zr476      Zr  0.88670907  0.42820450  0.83014918     2.06300
Zr477      Zr  0.83272072  0.42377686  0.93449103     2.10000
Zr478      Zr  0.88814758  0.47805361  0.88846628     1.78800
O479        O  0.79873235  0.38845904  0.96030881    -0.93200
O480        O  0.92344083  0.50485067  0.85566381    -0.41000
O481        O  0.84599343  0.45198555  0.88841180    -0.77600
O482        O  0.87245944  0.45446027  0.83724379    -0.96300
O483        O  0.84522317  0.40169324  0.83067972    -0.89600
O484        O  0.81692384  0.39937876  0.88502134    -0.92400
C485        C  0.92667340  0.48495756  0.95430485     1.01300
C486        C  0.86284249  0.41863160  0.00275436     1.14200
C487        C  0.93567086  0.43614846  0.87077723     1.05000
O488        O  0.91612461  0.46057092  0.79401983    -0.94600
O489        O  0.87051120  0.42513254  0.77436005    -0.90300
O490        O  0.83730878  0.42593688  0.77820737    -0.83500
C491        C  0.85271752  0.42449222  0.76128024     1.11700
O492        O  0.84089160  0.34620130  0.90379125    -0.96600
Zr493      Zr  0.83233277  0.37442875  0.87709395     1.88900
O494        O  0.79658708  0.38934689  0.81744161    -0.73200
O495        O  0.88756077  0.39617131  0.79989268    -0.52500
O496        O  0.83657507  0.34995957  0.83477157    -0.97200
O497        O  0.80010558  0.34567025  0.91358571    -0.54400
O498        O  0.79777845  0.35784946  0.84006012    -0.73700
C499        C  0.78837049  0.36658067  0.82114759     0.98600
O500        O  0.82623347  0.45729853  0.80843468    -0.62600
O501        O  0.83206137  0.45244559  0.97313837    -0.57400
O502        O  0.79835835  0.42929356  0.86067094    -0.94000
O503        O  0.80059019  0.42889675  0.91829413    -0.92500
O504        O  0.88176031  0.50406592  0.92479338    -0.92800
O505        O  0.88376308  0.50834943  0.85917435    -0.91600
C506        C  0.79125655  0.43014349  0.89038844     1.17500
H507        H  0.87923522  0.45876717  0.95570746     0.33400
H508        H  0.87688298  0.46523321  0.81795948     0.44300
H509        H  0.79995325  0.38978456  0.88607696     0.37800
H510        H  0.88134010  0.39061023  0.87458555     0.34300
H511        H  0.92956226  0.52127878  0.86497788     0.26000
H512        H  0.89999563  0.40483439  0.78262402     0.32000
H513        H  0.83710869  0.35757397  0.81271960     0.37900
H514        H  0.88204110  0.49870048  0.94823754     0.32400
H515        H  0.83270415  0.46508703  0.95831605     0.31200
H516        H  0.78807273  0.39394634  0.96630693     0.32900
H517        H  0.78818491  0.35006308  0.91166856     0.31900
H518        H  0.86663568  0.50013906  0.85494956     0.35900
H519        H  0.82706553  0.46833591  0.82633894     0.28600
H520        H  0.91401369  0.40722268  0.96315661     0.32800
H521        H  0.82791346  0.32979061  0.89678060     0.35700
H522        H  0.81597079  0.44358585  0.98265337     0.28300
H523        H  0.84114382  0.46730015  0.79586306     0.41200
H524        H  0.92877110  0.47196715  0.80977207     0.31200
H525        H  0.93501518  0.50083865  0.86320456     0.38800
H526        H  0.80640060  0.35042484  0.93696304     0.30700
H527        H  0.89408991  0.38964145  0.81614013     0.30800
H528        H  0.90369499  0.39095948  0.93064747     0.31000
Zr529      Zr  0.57445121  0.11053869  0.08564882     2.17500
O530        O  0.59643846  0.09431851  0.06153350    -0.51300
O531        O  0.53679136  0.08422624  0.05847514    -0.74500
O532        O  0.56031449  0.07075474  0.11250839    -0.81300
O533        O  0.58840970  0.15759670  0.01865048    -0.83100
O534        O  0.56187948  0.07688148  0.16944242    -0.78700
O535        O  0.58103832  0.11941885  0.02538376    -0.90300
O536        O  0.51106701  0.09320957  0.07974558    -0.76300
O537        O  0.54912408  0.10372636  0.13178759    -0.85800
O538        O  0.55795735  0.13448216  0.07466423    -0.85500
O539        O  0.59958411  0.12392481  0.13483703    -0.72200
O540        O  0.60681111  0.15223271  0.08135602    -0.84400
Zr541      Zr  0.58925863  0.18261653  0.16791479     2.26400
Zr542      Zr  0.57406174  0.11812816  0.18057755     2.06300
Zr543      Zr  0.58985329  0.17595638  0.07249922     2.10000
Zr544      Zr  0.53234794  0.12694819  0.12035516     1.78800
O545        O  0.62659565  0.20592774  0.04511350    -0.93200
O546        O  0.50101578  0.09429183  0.15400220    -0.41000
O547        O  0.56418181  0.16882715  0.11861023    -0.77600
O548        O  0.55632630  0.14105823  0.17108593    -0.96300
O549        O  0.60621285  0.15918130  0.17778362    -0.89600
O550        O  0.61462799  0.18985972  0.12137903    -0.92400
C551        C  0.51634239  0.08110345  0.06009470     1.01300
C552        C  0.58512822  0.13762447  0.00708606     1.14200
C553        C  0.55754542  0.06332790  0.14353780     1.05000
O554        O  0.54028065  0.09302059  0.21687303    -0.94600
O555        O  0.57987884  0.13681381  0.23513147    -0.90300
O556        O  0.58659727  0.17464655  0.22860732    -0.83500
C557        C  0.58380300  0.15694108  0.24682652     1.11700
O558        O  0.65112260  0.14905461  0.10238673    -0.96600
Zr559      Zr  0.63102021  0.16583514  0.13110523     1.88900
O560        O  0.62906501  0.21193554  0.18906376    -0.73200
O561        O  0.59893375  0.10761402  0.21130255    -0.52500
O562        O  0.65191933  0.15528851  0.17106027    -0.97200
O563        O  0.66192501  0.19646078  0.09456657    -0.54400
O564        O  0.65306471  0.20029554  0.16867644    -0.73700
C565        C  0.64916396  0.21408851  0.18665442     0.98600
O566        O  0.56767765  0.19798164  0.19635972    -0.62600
O567        O  0.56685220  0.18453249  0.03374477    -0.57400
O568        O  0.59231400  0.21817508  0.14191151    -0.94000
O569        O  0.59170424  0.21345065  0.08469126    -0.92500
O570        O  0.51435267  0.14163037  0.08155993    -0.92800
O571        O  0.50809598  0.13896606  0.14845690    -0.91600
C572        C  0.59220580  0.22500902  0.11132035     1.17500
H573        H  0.54939744  0.13019107  0.05344228     0.33400
H574        H  0.54660688  0.13919962  0.19020058     0.44300
H575        H  0.62664650  0.20691175  0.11938977     0.37800
H576        H  0.60600039  0.11387546  0.13815402     0.34300
H577        H  0.50008242  0.07936579  0.14634361     0.26000
H578        H  0.60973160  0.12214851  0.22504519     0.32000
H579        H  0.64560745  0.15547229  0.19357526     0.37900
H580        H  0.52570959  0.15942359  0.08037215     0.32400
H581        H  0.57766822  0.19370436  0.01481963     0.31200
H582        H  0.63199158  0.22137207  0.05712732     0.32900
H583        H  0.66322446  0.21190645  0.10019400     0.31900
H584        H  0.51939772  0.15581652  0.15614570     0.35900
H585        H  0.55639152  0.19696311  0.17914989     0.28600
H586        H  0.58442666  0.07915375  0.04995314     0.32800
H587        H  0.66807748  0.16039579  0.10733265     0.35700
H588        H  0.55492370  0.16861973  0.02379967     0.28300
H589        H  0.55746035  0.18542579  0.21317703     0.41200
H590        H  0.54580682  0.08572212  0.23353991     0.31200
H591        H  0.50757621  0.09702708  0.17728194     0.38800
H592        H  0.65503570  0.19241824  0.07144636     0.30700
H593        H  0.58838978  0.09525667  0.22812814     0.30800
H594        H  0.60161673  0.08882859  0.08123328     0.31000
Zr595      Zr  0.57978540  0.11343497  0.58827459     2.17500
O596        O  0.60092180  0.09501588  0.56870357    -0.51300
O597        O  0.54221718  0.08721496  0.56065831    -0.74500
O598        O  0.56333030  0.07421742  0.61738498    -0.81300
O599        O  0.59735460  0.15854073  0.51787722    -0.83100
O600        O  0.56340359  0.08181972  0.67361833    -0.78700
O601        O  0.58700683  0.11966098  0.52786208    -0.90300
O602        O  0.51694877  0.09783497  0.57856525    -0.76300
O603        O  0.55348221  0.10916247  0.63144408    -0.85800
O604        O  0.56539389  0.13849590  0.57241621    -0.85500
O605        O  0.60343729  0.12732813  0.63891785    -0.72200
O606        O  0.61383096  0.15420632  0.58370519    -0.84400
Zr607      Zr  0.59545785  0.18924395  0.66361175     2.26400
Zr608      Zr  0.57683579  0.12390728  0.68155633     2.06300
Zr609      Zr  0.59882829  0.17900177  0.56960218     2.10000
Zr610      Zr  0.53885636  0.13366271  0.61534777     1.78800
O611        O  0.63815171  0.20748670  0.54793601    -0.93200
O612        O  0.50581429  0.10423551  0.65006175    -0.41000
O613        O  0.57205239  0.17476249  0.61259364    -0.77600
O614        O  0.56137642  0.14835416  0.66723552    -0.96300
O615        O  0.61017896  0.16444025  0.67869481    -0.89600
O616        O  0.62202206  0.19397023  0.61997672    -0.92400
C617        C  0.52196610  0.08465407  0.56092757     1.01300
C618        C  0.59269840  0.13767056  0.50811947     1.14200
C619        C  0.55934306  0.06751323  0.64868376     1.05000
O620        O  0.54052499  0.10062794  0.71364991    -0.94600
O621        O  0.58121147  0.14395947  0.73440067    -0.90300
O622        O  0.59169561  0.18291695  0.72503935    -0.83500
C623        C  0.58664748  0.16494891  0.74465660     1.11700
O624        O  0.65893371  0.15275701  0.61294397    -0.96600
Zr625      Zr  0.63624042  0.16870242  0.63528007     1.88900
O626        O  0.63504184  0.21898770  0.68435390    -0.73200
O627        O  0.59928588  0.11330227  0.71821416    -0.52500
O628        O  0.65119748  0.15521196  0.68086608    -0.97200
O629        O  0.67050518  0.19782674  0.60212087    -0.54400
O630        O  0.65789988  0.20422981  0.67131243    -0.73700
C631        C  0.65450238  0.21973408  0.68549766     0.98600
O632        O  0.57544351  0.20552305  0.69385317    -0.62600
O633        O  0.58239721  0.19018293  0.52303583    -0.57400
O634        O  0.59794698  0.22333095  0.63265888    -0.94000
O635        O  0.59776078  0.21507398  0.57661358    -0.92500
O636        O  0.52292663  0.14585781  0.56946739    -0.92800
O637        O  0.51669631  0.15060000  0.63628332    -0.91600
C638        C  0.59764048  0.22795149  0.60090425     1.17500
H639        H  0.55739587  0.13387550  0.55074080     0.33400
H640        H  0.55130259  0.14749835  0.68521794     0.44300
H641        H  0.63456074  0.21078604  0.61731188     0.37800
H642        H  0.60901186  0.11677986  0.64429558     0.34300
H643        H  0.50806976  0.09053685  0.65301581     0.26000
H644        H  0.61141785  0.12879520  0.72896329     0.32000
H645        H  0.66821338  0.16783551  0.68223567     0.37900
H646        H  0.53639756  0.16174397  0.56175893     0.32400
H647        H  0.59444221  0.19659602  0.50498463     0.31200
H648        H  0.64059567  0.22371968  0.55131644     0.32900
H649        H  0.68419773  0.20203449  0.61676549     0.31900
H650        H  0.52744548  0.16839517  0.63349044     0.35900
H651        H  0.58732879  0.22308717  0.69669421     0.28600
H652        H  0.58867685  0.07941093  0.55833199     0.32800
H653        H  0.65311415  0.14781640  0.58939630     0.35700
H654        H  0.56911513  0.17463283  0.51397855     0.28300
H655        H  0.56379584  0.20469464  0.67751752     0.41200
H656        H  0.54319104  0.09031635  0.72910942     0.31200
H657        H  0.50895572  0.11173295  0.67283926     0.38800
H658        H  0.67021484  0.21282875  0.60157868     0.30700
H659        H  0.58840275  0.10371241  0.73687534     0.30800
H660        H  0.60576115  0.09033414  0.58963054     0.31000
Zr661      Zr  0.42093334  0.88904982  0.33869410     2.17500
O662        O  0.39979542  0.90710057  0.31683830    -0.51300
O663        O  0.45786084  0.91430716  0.30995462    -0.74500
O664        O  0.43677785  0.92851650  0.36704650    -0.81300
O665        O  0.40135102  0.84187776  0.27055623    -0.83100
O666        O  0.43638369  0.92162670  0.42375241    -0.78700
O667        O  0.41350103  0.88150729  0.27810668    -0.90300
O668        O  0.48247045  0.90218353  0.32601665    -0.76300
O669        O  0.44807424  0.89404101  0.38177991    -0.85800
O670        O  0.43412035  0.86280136  0.32423115    -0.85500
O671        O  0.39862975  0.87671584  0.39019397    -0.72200
O672        O  0.38656120  0.84848580  0.33565525    -0.84400
Zr673      Zr  0.40508904  0.81426799  0.41723582     2.26400
Zr674      Zr  0.42588457  0.88040510  0.43286632     2.06300
Zr675      Zr  0.40032873  0.82231670  0.32313949     2.10000
Zr676      Zr  0.46153184  0.86844514  0.36671863     1.78800
O677        O  0.36066762  0.79297452  0.30287127    -0.93200
O678        O  0.49541597  0.89969148  0.39868079    -0.41000
O679        O  0.42777222  0.82758458  0.36604441    -0.77600
O680        O  0.44010393  0.85480371  0.41944795    -0.96300
O681        O  0.39165665  0.84024686  0.43127746    -0.89600
O682        O  0.37781146  0.80900880  0.37396871    -0.92400
C683        C  0.47751796  0.91565143  0.30857085     1.01300
C684        C  0.40703954  0.86283515  0.25940981     1.14200
C685        C  0.44011997  0.93551290  0.39826406     1.05000
O686        O  0.46463678  0.90318874  0.45950809    -0.94600
O687        O  0.42148942  0.86097778  0.48690549    -0.90300
O688        O  0.41206074  0.82240749  0.47786078    -0.83500
C689        C  0.41672494  0.84017758  0.49731679     1.11700
O690        O  0.34198046  0.85202870  0.36711575    -0.96600
Zr691      Zr  0.36511953  0.83582484  0.38769792     1.88900
O692        O  0.36522161  0.78614184  0.43902484    -0.73200
O693        O  0.40879321  0.89484940  0.47313817    -0.52500
O694        O  0.35099247  0.84991097  0.43315149    -0.97200
O695        O  0.33210571  0.80871983  0.35075033    -0.54400
O696        O  0.34243408  0.80065056  0.42345841    -0.73700
C697        C  0.34573149  0.78542591  0.43896096     0.98600
O698        O  0.41988460  0.79132926  0.44441089    -0.62600
O699        O  0.41631238  0.81037533  0.27747594    -0.57400
O700        O  0.40483024  0.78120306  0.38745861    -0.94000
O701        O  0.40213806  0.78638312  0.33093864    -0.92500
O702        O  0.47626414  0.85365587  0.32320734    -0.92800
O703        O  0.48396966  0.85224365  0.38993221    -0.91600
C704        C  0.40415370  0.77512938  0.35623391     1.17500
H705        H  0.44170324  0.86675061  0.30236847     0.33400
H706        H  0.45045904  0.85567693  0.43724885     0.44300
H707        H  0.36493639  0.79227854  0.37206435     0.37800
H708        H  0.39343707  0.88759089  0.39516321     0.34300
H709        H  0.50923552  0.90238428  0.38593968     0.26000
H710        H  0.39505043  0.87998760  0.48281411     0.32000
H711        H  0.35783499  0.84780859  0.45418422     0.37900
H712        H  0.46314429  0.83672569  0.31889413     0.32400
H713        H  0.40443999  0.80424515  0.25900259     0.31200
H714        H  0.36269652  0.79002168  0.27890650     0.32900
H715        H  0.33021293  0.79264884  0.35301797     0.31900
H716        H  0.47202178  0.83491916  0.39454613     0.35900
H717        H  0.43505695  0.80363786  0.45506318     0.28600
H718        H  0.41222191  0.92359421  0.30925145     0.32800
H719        H  0.32629780  0.84187208  0.37771871     0.35700
H720        H  0.42991967  0.82575183  0.26865961     0.28300
H721        H  0.40914526  0.78254061  0.46357556     0.41200
H722        H  0.46554593  0.91747106  0.46984531     0.31200
H723        H  0.49545979  0.91473072  0.39489357     0.38800
H724        H  0.33804960  0.81411924  0.32742337     0.30700
H725        H  0.42030545  0.90195209  0.49206064     0.30800
H726        H  0.39291035  0.90981914  0.33710561     0.31000
Zr727      Zr  0.42198965  0.88511718  0.83963751     2.17500
O728        O  0.39762784  0.89913840  0.81675060    -0.51300
O729        O  0.45834210  0.91335859  0.81090123    -0.74500
O730        O  0.43456099  0.92423497  0.86748483    -0.81300
O731        O  0.40775063  0.83812007  0.77153396    -0.83100
O732        O  0.43654925  0.91882699  0.92415935    -0.78700
O733        O  0.41456010  0.87595574  0.77933860    -0.90300
O734        O  0.48608729  0.90631242  0.82997784    -0.76300
O735        O  0.44959899  0.89338195  0.88359027    -0.85800
O736        O  0.44010860  0.86324113  0.82639898    -0.85500
O737        O  0.39885009  0.87059886  0.89037268    -0.72200
O738        O  0.39077359  0.84274021  0.83728339    -0.84400
Zr739      Zr  0.41509173  0.81515670  0.91988944     2.26400
Zr740      Zr  0.42685380  0.87814784  0.93399302     2.06300
Zr741      Zr  0.40962857  0.82128367  0.82520728     2.10000
Zr742      Zr  0.46792273  0.87205303  0.86985892     1.78800
O743        O  0.37264942  0.78956232  0.79990783    -0.93200
O744        O  0.50008061  0.90505630  0.90228613    -0.41000
O745        O  0.43781777  0.82952582  0.86874736    -0.77600
O746        O  0.44635372  0.85735826  0.92209967    -0.96300
O747        O  0.39643088  0.83632131  0.93286923    -0.89600
O748        O  0.38720027  0.80640615  0.87579829    -0.92400
C749        C  0.47930961  0.91772491  0.81136951     1.01300
C750        C  0.41034538  0.85796744  0.76056757     1.14200
C751        C  0.43852572  0.93186414  0.89847461     1.05000
O752        O  0.46195681  0.90461437  0.96771183    -0.94600
O753        O  0.42375318  0.85968338  0.98811420    -0.90300
O754        O  0.41733921  0.82204363  0.98098967    -0.83500
C755        C  0.42014611  0.83955861  0.99955901     1.11700
O756        O  0.34257558  0.83824663  0.86236627    -0.96600
Zr757      Zr  0.36887236  0.82793345  0.88908161     1.88900
O758        O  0.37722433  0.78358263  0.94176315    -0.73200
O759        O  0.40077566  0.88474317  0.96825620    -0.52500
O760        O  0.35214598  0.84096787  0.93207460    -0.97200
O761        O  0.33581148  0.79466527  0.85811832    -0.54400
O762        O  0.35062249  0.79371947  0.92859731    -0.73700
C763        C  0.35666175  0.78018512  0.94323344     0.98600
O764        O  0.44047170  0.80374712  0.94692473    -0.62600
O765        O  0.43319119  0.81739485  0.78218175    -0.57400
O766        O  0.41068367  0.77927789  0.89331902    -0.94000
O767        O  0.40942437  0.78455250  0.83645390    -0.92500
O768        O  0.48498632  0.85848192  0.82820830    -0.92800
O769        O  0.49489685  0.86189067  0.89419125    -0.91600
C770        C  0.40966097  0.77266238  0.86237313     1.17500
H771        H  0.44784507  0.86788678  0.80464259     0.33400
H772        H  0.45706964  0.85993089  0.94040567     0.44300
H773        H  0.37576543  0.78916506  0.87399167     0.37800
H774        H  0.39173396  0.87984681  0.89441292     0.34300
H775        H  0.51303262  0.91391859  0.88580069     0.26000
H776        H  0.41134802  0.89798117  0.98408789     0.32000
H777        H  0.35819750  0.83887528  0.95392990     0.37900
H778        H  0.49538550  0.87295765  0.81414356     0.32400
H779        H  0.44541002  0.81655718  0.79505308     0.31200
H780        H  0.37708610  0.78064093  0.78471127     0.32900
H781        H  0.33514721  0.77976869  0.86540336     0.31900
H782        H  0.48455476  0.84519852  0.90314478     0.35900
H783        H  0.44995038  0.80327973  0.92822412     0.28600
H784        H  0.40894941  0.91545239  0.80732142     0.32800
H785        H  0.32752467  0.82881058  0.87479710     0.35700
H786        H  0.42282873  0.80091118  0.77257878     0.28300
H787        H  0.45196316  0.81814151  0.96039147     0.41200
H788        H  0.45653908  0.91087467  0.98588754     0.31200
H789        H  0.49485744  0.91631693  0.90709909     0.38800
H790        H  0.34109002  0.79708320  0.83424873     0.30700
H791        H  0.39462700  0.89211081  0.95282601     0.30800
H792        H  0.39093389  0.90225916  0.83688045     0.31000
C793        C  0.40910524  0.84621750  0.66458180     0.18700
C794        C  0.40271312  0.82559998  0.64501627    -0.19400
C795        C  0.40554520  0.82734445  0.60982746    -0.11700
C796        C  0.41506183  0.84993830  0.59349245     0.20900
C797        C  0.42118089  0.87046074  0.61305058    -0.21000
C798        C  0.41836231  0.86872155  0.64816820    -0.11900
C799        C  0.41817723  0.85311444  0.55621547    -0.16000
C800        C  0.41573562  0.83610006  0.53431113    -0.29900
C801        C  0.40727382  0.84361914  0.70201641    -0.04100
C802        C  0.40930310  0.86066168  0.72354075    -0.40700
H803        H  0.39557648  0.80804049  0.65704252     0.12100
H804        H  0.40007500  0.81092372  0.59583083     0.11700
H805        H  0.42843697  0.88806792  0.60112224     0.11200
H806        H  0.42403998  0.88520610  0.66212631     0.11400
H807        H  0.42237939  0.87055969  0.54621998     0.14100
H808        H  0.41198562  0.81861530  0.54313912     0.12900
H809        H  0.40470450  0.82688392  0.71236065     0.10600
H810        H  0.41126402  0.87730346  0.71422499     0.12600
C811        C  0.41595575  0.85160724  0.09412450     0.18700
C812        C  0.41636936  0.87084786  0.11070639    -0.19400
C813        C  0.41238737  0.86994102  0.14550706    -0.11700
C814        C  0.40796612  0.84966975  0.16455451     0.20900
C815        C  0.40751647  0.83040839  0.14798101    -0.21000
C816        C  0.41149064  0.83130969  0.11317423    -0.11900
C817        C  0.40414191  0.84770275  0.20167692    -0.16000
C818        C  0.40745899  0.86579068  0.22223776    -0.29900
C819        C  0.41984863  0.85364071  0.05699681    -0.04100
C820        C  0.41836270  0.83624608  0.03671900    -0.40700
H821        H  0.41966062  0.88667625  0.09661260     0.12100
H822        H  0.41267757  0.88508779  0.15700125     0.11700
H823        H  0.40422130  0.81458241  0.16208973     0.11200
H824        H  0.41105778  0.81608845  0.10168521     0.11400
H825        H  0.39958742  0.83047931  0.21295343     0.14100
H826        H  0.41253808  0.88346376  0.21231739     0.12900
H827        H  0.42341552  0.87047331  0.04551551     0.10600
H828        H  0.41470126  0.81908739  0.04680472     0.12600
C829        C  0.50773088  0.96706875  0.74134582     0.18700
C830        C  0.50059295  0.97048764  0.70928426    -0.19400
C831        C  0.51498105  0.99185818  0.69066694    -0.11700
C832        C  0.53679566  0.01032469  0.70399000     0.20900
C833        C  0.54420897  0.00647957  0.73544534    -0.21000
C834        C  0.52992894  0.98519343  0.75392645    -0.11900
C835        C  0.55080783  0.03509064  0.68898650    -0.16000
C836        C  0.54848643  0.04146817  0.65726390    -0.29900
C837        C  0.49076562  0.94575501  0.76237476    -0.04100
C838        C  0.49700193  0.93737565  0.78916881    -0.40700
H839        H  0.48348333  0.95691279  0.69910045     0.12100
H840        H  0.50840894  0.99431327  0.66687004     0.11700
H841        H  0.56077575  0.02052165  0.74654085     0.11200
H842        H  0.53591357  0.98370325  0.77880288     0.11400
H843        H  0.56312332  0.04941290  0.70614328     0.14100
H844        H  0.53768217  0.02783293  0.63839074     0.12900
H845        H  0.47223243  0.93675976  0.75570252     0.10600
H846        H  0.51541151  0.94474321  0.79485869     0.12600
C847        C  0.49111327  0.03490641  0.49142234     0.18700
C848        C  0.49916590  0.03018228  0.46143643    -0.19400
C849        C  0.48438640  0.00943697  0.44196188    -0.11700
C850        C  0.46113149  0.99275588  0.45221460     0.20900
C851        C  0.45277288  0.99797778  0.48142687    -0.21000
C852        C  0.46751359  0.01881325  0.50080348    -0.11900
C853        C  0.44660413  0.96806619  0.43694473    -0.16000
C854        C  0.45008653  0.96152419  0.40613447    -0.29900
C855        C  0.50852697  0.05537176  0.51348626    -0.04100
C856        C  0.50321306  0.06521225  0.53922982    -0.40700
H857        H  0.51729395  0.04216125  0.45366981     0.12100
H858        H  0.49170652  0.00584340  0.42015255     0.11700
H859        H  0.43502701  0.98528260  0.49018088     0.11200
H860        H  0.46065049  0.02146367  0.52393318     0.11400
H861        H  0.43341758  0.95391810  0.45339307     0.14100
H862        H  0.46177718  0.97514157  0.38787751     0.12900
H863        H  0.52697683  0.06275725  0.50809591     0.10600
H864        H  0.48511542  0.05947763  0.54406471     0.12600
C865        C  0.58636947  0.15156060  0.91191619     0.18700
C866        C  0.59544862  0.17333372  0.89373725    -0.19400
C867        C  0.59414013  0.17324385  0.85839908    -0.11700
C868        C  0.58339476  0.15118882  0.84053490     0.20900
C869        C  0.57426478  0.12937824  0.85879049    -0.21000
C870        C  0.57565366  0.12948851  0.89413471    -0.11900
C871        C  0.58190316  0.14981799  0.80302166    -0.16000
C872        C  0.58747213  0.16845865  0.78176281    -0.29900
C873        C  0.58728370  0.15277865  0.94935465    -0.04100
C874        C  0.58545406  0.13530370  0.96993343    -0.40700
H875        H  0.60368727  0.19055538  0.90697745     0.12100
H876        H  0.60175312  0.19048989  0.84548439     0.11700
H877        H  0.56587608  0.11210883  0.84564545     0.11200
H878        H  0.56786791  0.11227743  0.90727840     0.11400
H879        H  0.57588061  0.13206995  0.79229593     0.14100
H880        H  0.59298285  0.18633515  0.79120712     0.12900
H881        H  0.58972199  0.16920500  0.96045713     0.10600
H882        H  0.58366134  0.11898938  0.95966212     0.12600
C883        C  0.59520157  0.14891940  0.41206379     0.18700
C884        C  0.60359848  0.16996971  0.39239609    -0.19400
C885        C  0.60048280  0.16844050  0.35733591    -0.11700
C886        C  0.58867251  0.14568372  0.34126492     0.20900
C887        C  0.58062208  0.12463624  0.36077200    -0.21000
C888        C  0.58367608  0.12614681  0.39589967    -0.11900
C889        C  0.58533368  0.14316968  0.30415441    -0.16000
C890        C  0.58572982  0.16005030  0.28386387    -0.29900
C891        C  0.59761642  0.15173673  0.44931611    -0.04100
C892        C  0.59300015  0.13391200  0.47139914    -0.40700
H893        H  0.61256332  0.18773119  0.40423372     0.12100
H894        H  0.60767014  0.18513252  0.34304711     0.11700
H895        H  0.57163475  0.10691199  0.34882016     0.11200
H896        H  0.57652078  0.10941011  0.41001357     0.11400
H897        H  0.58228543  0.12645536  0.29315457     0.14100
H898        H  0.58789867  0.17650212  0.29425645     0.12900
H899        H  0.60288212  0.16953385  0.45907969     0.10600
H900        H  0.58833956  0.11610151  0.46281023     0.12600
C901        C  0.53601205  0.00587122  0.19717243     0.18700
C902        C  0.51214810  0.99020674  0.18860123    -0.19400
C903        C  0.49757044  0.96961934  0.20847222    -0.11700
C904        C  0.50649428  0.96411203  0.23711653     0.20900
C905        C  0.53062192  0.97922104  0.24467645    -0.21000
C906        C  0.54511838  0.99989785  0.22500481    -0.11900
C907        C  0.48963125  0.94411812  0.26013663    -0.16000
C908        C  0.49554433  0.93398283  0.28508109    -0.29900
C909        C  0.55065414  0.03052511  0.18207802    -0.04100
C910        C  0.54745103  0.03722606  0.15100956    -0.40700
H911        H  0.50437315  0.99460561  0.16795840     0.12100
H912        H  0.47901256  0.95845046  0.20218403     0.11700
H913        H  0.53819420  0.97601149  0.26676041     0.11200
H914        H  0.56335955  0.01191424  0.23250101     0.11400
H915        H  0.47114237  0.93760960  0.25651800     0.14100
H916        H  0.51356092  0.93880152  0.28815338     0.12900
H917        H  0.56377429  0.04449801  0.19890754     0.10600
H918        H  0.53575369  0.02369845  0.13257558     0.12600
C919        C  0.48585515  0.03281112  0.98882463     0.18700
C920        C  0.49315462  0.02938360  0.95713113    -0.19400
C921        C  0.47913246  0.00783660  0.93870411    -0.11700
C922        C  0.45747404  0.98911779  0.95176504     0.20900
C923        C  0.44967087  0.99306261  0.98260369    -0.21000
C924        C  0.46359966  0.01462406  0.00090718    -0.11900
C925        C  0.44452022  0.96403402  0.93752093    -0.16000
C926        C  0.44698556  0.95763968  0.90593902    -0.29900
C927        C  0.50306393  0.05396938  0.01009849    -0.04100
C928        C  0.49764660  0.06208958  0.03786842    -0.40700
H929        H  0.51027632  0.04300987  0.94725732     0.12100
H930        H  0.48600092  0.00534927  0.91543735     0.11700
H931        H  0.43317954  0.97885489  0.99347922     0.11200
H932        H  0.45741578  0.01623088  0.02537590     0.11400
H933        H  0.43334804  0.94961243  0.95530568     0.14100
H934        H  0.45659650  0.97129802  0.88656284     0.12900
H935        H  0.52145382  0.06295933  0.00291072     0.10600
H936        H  0.47944723  0.05480707  0.04452802     0.12600
C937        C  0.73428778  0.30777804  0.78401197     0.18700
C938        C  0.72940442  0.28423617  0.77889716    -0.19400
C939        C  0.70980821  0.26725318  0.75993496    -0.11700
C940        C  0.69448604  0.27337422  0.74552541     0.20900
C941        C  0.69862919  0.29650793  0.75197075    -0.21000
C942        C  0.71840292  0.31363554  0.77085329    -0.11900
C943        C  0.67399089  0.25568916  0.72425653    -0.16000
C944        C  0.67474500  0.23921839  0.70479010    -0.29900
C945        C  0.75583046  0.32526412  0.80375626    -0.04100
C946        C  0.76649592  0.34960032  0.80207036    -0.40700
H947        H  0.74097810  0.27900383  0.78932475     0.12100
H948        H  0.70661686  0.24924491  0.75685505     0.11700
H949        H  0.68677752  0.30147614  0.74187248     0.11200
H950        H  0.72098389  0.33125380  0.77527964     0.11400
H951        H  0.65827956  0.25645763  0.72428048     0.14100
H952        H  0.69095247  0.23943471  0.70357396     0.12900
H953        H  0.76381329  0.31772541  0.81926443     0.10600
H954        H  0.75939653  0.35757724  0.78568150     0.12600
C955        C  0.69018303  0.26616153  0.24843664     0.18700
C956        C  0.69423066  0.28900905  0.25668002    -0.19400
C957        C  0.71428173  0.30585285  0.27534089    -0.11700
C958        C  0.73064519  0.30003134  0.28648532     0.20900
C959        C  0.72597817  0.27678093  0.27930216    -0.21000
C960        C  0.70608109  0.26007930  0.26053700    -0.11900
C961        C  0.75265698  0.31727255  0.30572648    -0.16000
C962        C  0.76192560  0.34136942  0.30815405    -0.29900
C963        C  0.66913639  0.24870344  0.22781950    -0.04100
C964        C  0.66969216  0.23318435  0.20605917    -0.40700
H965        H  0.68202995  0.29397468  0.24820947     0.12100
H966        H  0.71663353  0.32320278  0.28106157     0.11700
H967        H  0.73793316  0.27154374  0.28799183     0.11200
H968        H  0.70307620  0.24229122  0.25583466     0.11400
H969        H  0.76218048  0.30985961  0.31731267     0.14100
H970        H  0.75319070  0.34942624  0.29610926     0.12900
H971        H  0.65321772  0.24896419  0.23010167     0.10600
H972        H  0.68611739  0.23406846  0.20262740     0.12600
C973        C  0.86041114  0.41197908  0.66867914     0.18700
C974        C  0.88010127  0.41733277  0.64951538    -0.19400
C975        C  0.87814587  0.41341514  0.61453588    -0.11700
C976        C  0.85623916  0.40359967  0.59823284     0.20900
C977        C  0.83643854  0.39765354  0.61762623    -0.21000
C978        C  0.83842981  0.40168431  0.65253742    -0.11900
C979        C  0.85345029  0.40127609  0.56094664    -0.16000
C980        C  0.86942868  0.40250961  0.53921718    -0.29900
C981        C  0.86340052  0.41670481  0.70554512    -0.04100
C982        C  0.84942248  0.42108759  0.72426854    -0.40700
H983        H  0.89718541  0.42512290  0.66155425     0.12100
H984        H  0.89393343  0.41878970  0.60047793     0.11700
H985        H  0.81936354  0.39008298  0.60563854     0.11200
H986        H  0.82273496  0.39656305  0.66672907     0.11400
H987        H  0.83753563  0.39948953  0.55083823     0.14100
H988        H  0.88520415  0.40362175  0.54830688     0.12900
H989        H  0.87815928  0.41706926  0.71756382     0.10600
H990        H  0.83508334  0.42163565  0.71257012     0.12600
C991        C  0.85038533  0.41840468  0.09842498     0.18700
C992        C  0.83726456  0.42547524  0.11689717    -0.19400
C993        C  0.83862278  0.42684300  0.15234739    -0.11700
C994        C  0.85311172  0.42097591  0.17008631     0.20900
C995        C  0.86592724  0.41356781  0.15161076    -0.21000
C996        C  0.86452717  0.41214202  0.11629233    -0.11900
C997        C  0.85593222  0.42250187  0.20757720    -0.16000
C998        C  0.84265808  0.42575433  0.22968951    -0.29900
C999        C  0.84881583  0.41796140  0.06075012    -0.04100
C1000       C  0.86400276  0.41679256  0.03997972    -0.40700
H1001       H  0.82614446  0.43030848  0.10380261     0.12100
H1002       H  0.82858689  0.43282643  0.16543665     0.11700
H1003       H  0.87710794  0.40876552  0.16460019     0.11200
H1004       H  0.87445240  0.40593967  0.10343601     0.11400
H1005       H  0.86949712  0.41990790  0.21764697     0.14100
H1006       H  0.82827895  0.42740996  0.22102707     0.12900
H1007       H  0.83507877  0.41986086  0.04961628     0.10600
H1008       H  0.87845631  0.41581334  0.05011729     0.12600
C1009       C  0.30493161  0.73234213  0.49958367     0.18700
C1010       C  0.30339431  0.71117349  0.51117063    -0.19400
C1011       C  0.28412593  0.69392253  0.53042192    -0.11700
C1012       C  0.26584962  0.69749978  0.53862268     0.20900
C1013       C  0.26775980  0.71900739  0.52778620    -0.21000
C1014       C  0.28701395  0.73623493  0.50861885    -0.11900
C1015       C  0.24475107  0.67969384  0.55875567    -0.16000
C1016       C  0.23831474  0.65655197  0.56446809    -0.29900
C1017       C  0.32576732  0.75036493  0.47924938    -0.04100
C1018       C  0.32517031  0.76617300  0.45788117    -0.40700
H1019       H  0.31712985  0.70791063  0.50517783     0.12100
H1020       H  0.28396603  0.67809946  0.53904740     0.11700
H1021       H  0.25424624  0.72252614  0.53415749     0.11200
H1022       H  0.28791260  0.75274455  0.50154649     0.11400
H1023       H  0.23357542  0.68568026  0.56823963     0.14100
H1024       H  0.24858872  0.64978283  0.55418244     0.12900
H1025       H  0.34186003  0.75040020  0.48163366     0.10600
H1026       H  0.30885184  0.76550815  0.45431808     0.12600
C1027       C  0.99120220  0.45382616  0.82037267     0.18700
C1028       C  0.99506361  0.44609636  0.78928171    -0.19400
C1029       C  0.01560991  0.46100463  0.77078290    -0.11700
C1030       C  0.03294093  0.48415139  0.78300455     0.20900
C1031       C  0.02963593  0.49140070  0.81490156    -0.21000
C1032       C  0.00903965  0.47643057  0.83347277    -0.11900
C1033       C  0.05334535  0.50203073  0.76189946    -0.16000
C1034       C  0.06139400  0.49591938  0.73504599    -0.29900
C1035       C  0.96699617  0.43983467  0.83467826    -0.04100
C1036       C  0.96046973  0.44363557  0.86521917    -0.40700
H1037       H  0.98153235  0.42892733  0.77830934     0.12100
H1038       H  0.01707677  0.45479626  0.74610386     0.11700
H1039       H  0.04264522  0.50915363  0.82490734     0.11200
H1040       H  0.00664770  0.48331189  0.85695919     0.11400
H1041       H  0.06202985  0.52110920  0.76870512     0.14100
H1042       H  0.05425643  0.47695928  0.72922655     0.12900
H1043       H  0.95321915  0.42733288  0.81720139     0.10600
H1044       H  0.97348391  0.45469485  0.88439139     0.12600
C1045       C  0.97357657  0.50358905  0.52453807     0.18700
C1046       C  0.97615100  0.49575659  0.55666379    -0.19400
C1047       C  0.99611965  0.51063652  0.57682803    -0.11700
C1048       C  0.01400999  0.53365088  0.56503251     0.20900
C1049       C  0.01109632  0.54163157  0.53331446    -0.21000
C1050       C  0.99122171  0.52686592  0.51329293    -0.11900
C1051       C  0.03750136  0.54818665  0.58169774    -0.16000
C1052       C  0.04293162  0.54531386  0.61373038    -0.29900
C1053       C  0.95335115  0.48649165  0.50235275    -0.04100
C1054       C  0.94548373  0.49379396  0.47631016    -0.40700
H1055       H  0.96294720  0.47780843  0.56581290     0.12100
H1056       H  0.99798997  0.50356199  0.60069335     0.11700
H1057       H  0.02479190  0.55905387  0.52326275     0.11200
H1058       H  0.99041280  0.53339567  0.48837503     0.11400
H1059       H  0.05183119  0.56090010  0.56524984     0.14100
H1060       H  0.02928035  0.53417582  0.63196730     0.12900
H1061       H  0.94447350  0.46718636  0.50790531     0.10600
H1062       H  0.95286083  0.51300686  0.47199503     0.12600
C1063       C  0.30033664  0.73411521  0.99197438     0.18700
C1064       C  0.28404107  0.73645506  0.01060463    -0.19400
C1065       C  0.26712806  0.71726489  0.03052209    -0.11700
C1066       C  0.26605079  0.69508784  0.03220239     0.20900
C1067       C  0.28221349  0.69267585  0.01314572    -0.21000
C1068       C  0.29919618  0.71194280  0.99327280    -0.11900
C1069       C  0.24756941  0.67369330  0.05175662    -0.16000
C1070       C  0.23424050  0.67518290  0.07568937    -0.29900
C1071       C  0.31771317  0.75487405  0.97068147    -0.04100
C1072       C  0.33902865  0.75903299  0.96332222    -0.40700
H1073       H  0.28436326  0.75323136  0.00969461     0.12100
H1074       H  0.25465669  0.71988330  0.04366243     0.11700
H1075       H  0.28157950  0.67572961  0.01340492     0.11200
H1076       H  0.31099997  0.70919066  0.97839559     0.11400
H1077       H  0.24458731  0.65599931  0.04578301     0.14100
H1078       H  0.23734723  0.69268681  0.08285964     0.12900
H1079       H  0.31325613  0.76782249  0.96230265     0.10600
H1080       H  0.34422429  0.74707097  0.97341828     0.12600
C1081       C  0.98951039  0.45118635  0.31035628     0.18700
C1082       C  0.99375623  0.44427018  0.27889328    -0.19400
C1083       C  0.01518005  0.45897708  0.26217120    -0.11700
C1084       C  0.03289686  0.48112762  0.27654622     0.20900
C1085       C  0.02915294  0.48736317  0.30893526    -0.21000
C1086       C  0.00774723  0.47255648  0.32576630    -0.11900
C1087       C  0.05394776  0.49952949  0.25698279    -0.16000
C1088       C  0.06194733  0.49482623  0.22859987    -0.29900
C1089       C  0.96489207  0.43813970  0.32299248    -0.04100
C1090       C  0.95856597  0.43950426  0.35490099    -0.40700
H1091       H  0.97994461  0.42802372  0.26630404     0.12100
H1092       H  0.01707615  0.45360579  0.23711103     0.11700
H1093       H  0.04242644  0.50437124  0.32057535     0.11200
H1094       H  0.00505313  0.47880048  0.34963823     0.11400
H1095       H  0.06288175  0.51820049  0.26589507     0.14100
H1096       H  0.05466858  0.47627662  0.22030279     0.12900
H1097       H  0.95111552  0.42832887  0.30407958     0.10600
H1098       H  0.97165057  0.44767117  0.37500387     0.12600
C1099       C  0.15122663  0.59705273  0.85861623     0.18700
C1100       C  0.17154909  0.60475471  0.87820884    -0.19400
C1101       C  0.17054296  0.60376718  0.91359084    -0.11700
C1102       C  0.14901326  0.59481111  0.93022559     0.20900
C1103       C  0.12883052  0.58786751  0.91070513    -0.21000
C1104       C  0.12982403  0.58882963  0.87529761    -0.11900
C1105       C  0.14665878  0.59244541  0.96768417    -0.16000
C1106       C  0.16266122  0.59283008  0.98892487    -0.29900
C1107       C  0.15312179  0.59647345  0.82115854    -0.04100
C1108       C  0.13597071  0.59186303  0.79875831    -0.40700
H1109       H  0.18830217  0.61130699  0.86605713     0.12100
H1110       H  0.18668230  0.61006722  0.92755277     0.11700
H1111       H  0.11204865  0.58110729  0.92289251     0.11200
H1112       H  0.11364580  0.58246166  0.86143149     0.11400
H1113       H  0.13042184  0.58944588  0.97815670     0.14100
H1114       H  0.17878683  0.59514990  0.97937638     0.12900
H1115       H  0.16953864  0.59937877  0.81160420     0.10600
H1116       H  0.11956737  0.58948941  0.80704035     0.12600
C1117       C  0.14747695  0.57943505  0.36074761     0.18700
C1118       C  0.16405301  0.57608911  0.37734543    -0.19400
C1119       C  0.16285165  0.57208831  0.41227548    -0.11700
C1120       C  0.14508442  0.57160108  0.43129619     0.20900
C1121       C  0.12852212  0.57496364  0.41470520    -0.21000
C1122       C  0.12974288  0.57900039  0.37981235    -0.11900
C1123       C  0.14297849  0.56774407  0.46837964    -0.16000
C1124       C  0.16052386  0.57133805  0.48931539    -0.29900
C1125       C  0.14957033  0.58339469  0.32366036    -0.04100
C1126       C  0.13212995  0.58041514  0.30305874    -0.40700
H1127       H  0.17787041  0.57630480  0.36314785     0.12100
H1128       H  0.17563826  0.56909324  0.42400385     0.11700
H1129       H  0.11472105  0.57478896  0.42889589     0.11200
H1130       H  0.11698688  0.58208176  0.36819318     0.11400
H1131       H  0.12629954  0.56322796  0.47919859     0.14100
H1132       H  0.17758994  0.57643743  0.47956669     0.12900
H1133       H  0.16613915  0.58777310  0.31259389     0.10600
H1134       H  0.11510998  0.57528934  0.31302454     0.12600
C1135       C  0.01160903  0.54140401  0.07095763     0.18700
C1136       C  0.00895465  0.55003482  0.03960097    -0.19400
C1137       C  0.98911942  0.53580950  0.01919889    -0.11700
C1138       C  0.97118546  0.51242410  0.02968449     0.20900
C1139       C  0.97318999  0.50427307  0.06193685    -0.21000
C1140       C  0.99315164  0.51859035  0.08245162    -0.11900
C1141       C  0.95153865  0.49532375  0.00645356    -0.16000
C1142       C  0.94503240  0.50236564  0.97840711    -0.29900
C1143       C  0.03529412  0.55509774  0.08740097    -0.04100
C1144       C  0.04109984  0.55082897  0.11842041    -0.40700
H1145       H  0.02293577  0.56744118  0.02990887     0.12100
H1146       H  0.98872770  0.54279196  0.99445513     0.11700
H1147       H  0.95967905  0.48634618  0.07073932     0.11200
H1148       H  0.99458727  0.51112526  0.10622846     0.11400
H1149       H  0.94227874  0.47606733  0.01250909     0.14100
H1150       H  0.95290182  0.52152493  0.97305472     0.12900
H1151       H  0.04946840  0.56853442  0.07137144     0.10600
H1152       H  0.02766799  0.53878557  0.13636176     0.12600
C1153       C  0.41355265  0.72279352  0.81619113     0.18700
C1154       C  0.42443150  0.72354056  0.78559915    -0.19400
C1155       C  0.42707182  0.70452459  0.77640167    -0.11700
C1156       C  0.41870643  0.68411007  0.79754366     0.20900
C1157       C  0.40701004  0.68285367  0.82758795    -0.21000
C1158       C  0.40459570  0.70210725  0.83704521    -0.11900
C1159       C  0.42112851  0.66357997  0.78780428    -0.16000
C1160       C  0.43954514  0.66694179  0.76971446    -0.29900
C1161       C  0.41157543  0.74380639  0.82451661    -0.04100
C1162       C  0.40918255  0.75001762  0.85610227    -0.40700
H1163       H  0.43110262  0.73904189  0.76876677     0.12100
H1164       H  0.43531438  0.70569077  0.75239609     0.11700
H1165       H  0.39994448  0.66705513  0.84390839     0.11200
H1166       H  0.39545219  0.70055203  0.86029403     0.11400
H1167       H  0.40755313  0.64538425  0.79587786     0.14100
H1168       H  0.45385104  0.68527192  0.76356295     0.12900
H1169       H  0.41374994  0.75569851  0.80351457     0.10600
H1170       H  0.40820517  0.73921961  0.87780970     0.12600
C1171       C  0.32138019  0.58932603  0.68650633     0.18700
C1172       C  0.30313163  0.58191707  0.70985239    -0.19400
C1173       C  0.28263498  0.58110750  0.70057837    -0.11700
C1174       C  0.28006793  0.58808030  0.66772909     0.20900
C1175       C  0.29840880  0.59575233  0.64451521    -0.21000
C1176       C  0.31893279  0.59665973  0.65382195    -0.11900
C1177       C  0.25833918  0.58698557  0.65664520    -0.16000
C1178       C  0.24414470  0.58869552  0.67860970    -0.29900
C1179       C  0.34258299  0.58910107  0.69699098    -0.04100
C1180       C  0.35660387  0.58762283  0.67438947    -0.40700
H1181       H  0.30451657  0.57622469  0.73516168     0.12100
H1182       H  0.26867091  0.57442028  0.71900523     0.11700
H1183       H  0.29695531  0.60131348  0.61914706     0.11200
H1184       H  0.33285236  0.60339702  0.63533534     0.11400
H1185       H  0.25425977  0.58531979  0.62968093     0.14100
H1186       H  0.24881666  0.59168347  0.70533403     0.12900
H1187       H  0.34620540  0.58921097  0.72393130     0.10600
H1188       H  0.35247707  0.58634396  0.64753714     0.12600
C1189       C  0.42537000  0.69640569  0.28447118     0.18700
C1190       C  0.43755396  0.71276491  0.31109078    -0.19400
C1191       C  0.43038909  0.72802044  0.32305804    -0.11700
C1192       C  0.41123287  0.72770109  0.30793124     0.20900
C1193       C  0.39930752  0.71160313  0.28088991    -0.21000
C1194       C  0.40606504  0.69588685  0.26956269    -0.11900
C1195       C  0.40487855  0.74558627  0.31736471    -0.16000
C1196       C  0.40725899  0.75464835  0.34894494    -0.29900
C1197       C  0.43325375  0.68032501  0.27221092    -0.04100
C1198       C  0.41777825  0.65659647  0.26595967    -0.40700
H1199       H  0.45257898  0.71362417  0.32278782     0.12100
H1200       H  0.44038569  0.74065417  0.34329986     0.11700
H1201       H  0.38476893  0.71127832  0.26838263     0.11200
H1202       H  0.39657332  0.68375615  0.24859073     0.11400
H1203       H  0.39816114  0.75169221  0.29718881     0.14100
H1204       H  0.41261680  0.74762714  0.36971016     0.12900
H1205       H  0.45200247  0.68770733  0.27043641     0.10600
H1206       H  0.39920771  0.64916034  0.27041800     0.12600
C1207       C  0.27685106  0.59189954  0.15995203     0.18700
C1208       C  0.27909431  0.57324639  0.14715885    -0.19400
C1209       C  0.29756894  0.57087294  0.15788704    -0.11700
C1210       C  0.31439920  0.58740310  0.18128509     0.20900
C1211       C  0.31222337  0.60612313  0.19402535    -0.21000
C1212       C  0.29374670  0.60851837  0.18325631    -0.11900
C1213       C  0.33450578  0.58565039  0.19238117    -0.16000
C1214       C  0.34515751  0.57861937  0.17098199    -0.29900
C1215       C  0.25622989  0.59296512  0.14954176    -0.04100
C1216       C  0.24560764  0.59976449  0.17131662    -0.40700
H1217       H  0.26619248  0.56012877  0.12942732     0.12100
H1218       H  0.29846707  0.55589840  0.14820481     0.11700
H1219       H  0.32506598  0.61914470  0.21190701     0.11200
H1220       H  0.29279848  0.62344017  0.19303400     0.11400
H1221       H  0.34187588  0.59214931  0.21756347     0.14100
H1222       H  0.33911800  0.57430630  0.14483467     0.12900
H1223       H  0.24808880  0.58545560  0.12503406     0.10600
H1224       H  0.25252314  0.60515520  0.19693032     0.12600
C1225       C  0.44834263  0.58767615  0.91920051     0.18700
C1226       C  0.45792022  0.57740375  0.93960936    -0.19400
C1227       C  0.45807221  0.57922322  0.97485039    -0.11700
C1228       C  0.44898254  0.59180637  0.99039320     0.20900
C1229       C  0.43963117  0.60234151  0.96992021    -0.21000
C1230       C  0.43937516  0.60040607  0.93461179    -0.11900
C1231       C  0.44721021  0.59266849  0.02772526    -0.16000
C1232       C  0.45976789  0.58829593  0.05007213    -0.29900
C1233       C  0.44873826  0.58525583  0.88199694    -0.04100
C1234       C  0.43338537  0.58573671  0.86045617    -0.40700
H1235       H  0.46492147  0.56750698  0.92823775     0.12100
H1236       H  0.46473084  0.57016453  0.98963901     0.11700
H1237       H  0.43242098  0.61203507  0.98130541     0.11200
H1238       H  0.43243240  0.60910854  0.91957593     0.11400
H1239       H  0.43444750  0.59654817  0.03716443     0.14100
H1240       H  0.47352570  0.58569317  0.04154871     0.12900
H1241       H  0.46187294  0.58207139  0.87211969     0.10600
H1242       H  0.41957297  0.58798011  0.86986213     0.12600
C1243       C  0.44316541  0.58357617  0.48947372     0.18700
C1244       C  0.42250579  0.57916136  0.47341843    -0.19400
C1245       C  0.42047293  0.57831986  0.43812327    -0.11700
C1246       C  0.43921654  0.58198103  0.41806881     0.20900
C1247       C  0.45991188  0.58645620  0.43409701    -0.21000
C1248       C  0.46193863  0.58727969  0.46941369    -0.11900
C1249       C  0.43804997  0.58056358  0.38056387    -0.16000
C1250       C  0.42050623  0.57818906  0.36056269    -0.29900
C1251       C  0.44405920  0.58444624  0.52704946    -0.04100
C1252       C  0.46117176  0.58591383  0.54709312    -0.40700
H1253       H  0.40773510  0.57622138  0.48829746     0.12100
H1254       H  0.40415114  0.57455184  0.42695528     0.11700
H1255       H  0.47464411  0.58930718  0.41919679     0.11200
H1256       H  0.47822635  0.59096210  0.48060575     0.11400
H1257       H  0.45305990  0.58161613  0.36862989     0.14100
H1258       H  0.40555411  0.57795009  0.37099411     0.12900
H1259       H  0.42897246  0.58320017  0.53902602     0.10600
H1260       H  0.47616374  0.58629287  0.53652513     0.12600
C1261       C  0.58049455  0.31290369  0.05052982     0.18700
C1262       C  0.56559643  0.29384422  0.07255874    -0.19400
C1263       C  0.57096297  0.27670774  0.08250305    -0.11700
C1264       C  0.59101769  0.27794896  0.06974229     0.20900
C1265       C  0.60580355  0.29688965  0.04748100    -0.21000
C1266       C  0.60080713  0.31442600  0.03832447    -0.11900
C1267       C  0.59540453  0.25830087  0.07640321    -0.16000
C1268       C  0.59135151  0.24705794  0.10663038    -0.29900
C1269       C  0.57382493  0.33010349  0.03887259    -0.04100
C1270       C  0.58974431  0.35403417  0.03537378    -0.40700
H1271       H  0.54971633  0.29216280  0.08193907     0.12100
H1272       H  0.55890947  0.26192516  0.09900172     0.11700
H1273       H  0.62112283  0.29795662  0.03689680     0.11200
H1274       H  0.61233989  0.32863567  0.02071105     0.11400
H1275       H  0.60197315  0.25279236  0.05553225     0.14100
H1276       H  0.58637054  0.25362951  0.12818290     0.12900
H1277       H  0.55532430  0.32302398  0.03413127     0.10600
H1278       H  0.60791803  0.36132139  0.04279095     0.12600
C1279       C  0.74068338  0.43630341  0.92306923     0.18700
C1280       C  0.73532800  0.44234193  0.95434397    -0.19400
C1281       C  0.71534828  0.44351811  0.95793087    -0.11700
C1282       C  0.70007512  0.43842614  0.93021233     0.20900
C1283       C  0.70558680  0.43273940  0.89883257    -0.21000
C1284       C  0.72551774  0.43151090  0.89525050    -0.11900
C1285       C  0.67834525  0.43891175  0.93267662    -0.16000
C1286       C  0.66774174  0.43753715  0.96215227    -0.29900
C1287       C  0.76173841  0.43447759  0.92105285    -0.04100
C1288       C  0.77080077  0.43265305  0.89176449    -0.40700
H1289       H  0.74668289  0.44619954  0.97616898     0.12100
H1290       H  0.71222820  0.44868390  0.98235804     0.11700
H1291       H  0.69416726  0.42878455  0.87705284     0.11200
H1292       H  0.72845085  0.42628194  0.87077344     0.11400
H1293       H  0.67022536  0.43943763  0.90901937     0.14100
H1294       H  0.67493726  0.43608703  0.98607604     0.12900
H1295       H  0.77021561  0.43478411  0.94479115     0.10600
H1296       H  0.76337310  0.43324471  0.86759824     0.12600
C1297       C  0.55218745  0.52183911  0.82912480     0.18700
C1298       C  0.54359796  0.51353235  0.79606393    -0.19400
C1299       C  0.53800528  0.52679288  0.77417441    -0.11700
C1300       C  0.54087948  0.54874136  0.78500673     0.20900
C1301       C  0.55050290  0.55753611  0.81746586    -0.21000
C1302       C  0.55603112  0.54430886  0.83929351    -0.11900
C1303       C  0.53100674  0.56128360  0.76626424    -0.16000
C1304       C  0.52106569  0.55584552  0.73490580    -0.29900
C1305       C  0.55488289  0.50558514  0.85290943    -0.04100
C1306       C  0.56680854  0.51254100  0.88274048    -0.40700
H1307       H  0.54043081  0.49625576  0.78751864     0.12100
H1308       H  0.53041841  0.51918601  0.74961815     0.11700
H1309       H  0.55272542  0.57426299  0.82671448     0.11200
H1310       H  0.56219511  0.55127853  0.86458539     0.11400
H1311       H  0.52980610  0.57462232  0.78100873     0.14100
H1312       H  0.52281268  0.54382660  0.71804711     0.12900
H1313       H  0.54647351  0.48669173  0.84526526     0.10600
H1314       H  0.57671072  0.53148854  0.89026019     0.12600
C1315       C  0.46909686  0.45862777  0.02957795     0.18700
C1316       C  0.45468792  0.44895699  0.05828350    -0.19400
C1317       C  0.44959962  0.46326676  0.07808456    -0.11700
C1318       C  0.45886767  0.48775357  0.06956307     0.20900
C1319       C  0.47227371  0.49705283  0.03981958    -0.21000
C1320       C  0.47734839  0.48269451  0.01997196    -0.11900
C1321       C  0.45668064  0.50471433  0.09212998    -0.16000
C1322       C  0.44151574  0.49774589  0.11822905    -0.29900
C1323       C  0.47859067  0.44472218  0.01477185    -0.04100
C1324       C  0.49018208  0.44976658  0.98505969    -0.40700
H1325       H  0.44834170  0.43056558  0.06649796     0.12100
H1326       H  0.43947746  0.45530072  0.10088862     0.11700
H1327       H  0.47966669  0.51584252  0.03262139     0.11200
H1328       H  0.48892506  0.49101430  0.99849731     0.11400
H1329       H  0.46817811  0.52402316  0.08681979     0.14100
H1330       H  0.42879559  0.47866303  0.12306669     0.12900
H1331       H  0.47824728  0.43113946  0.03131663     0.10600
H1332       H  0.48973422  0.46197638  0.96672548     0.12600
C1333       C  0.58065870  0.31617683  0.56795011     0.18700
C1334       C  0.56827354  0.29204455  0.55664451    -0.19400
C1335       C  0.57279985  0.27524575  0.57055553    -0.11700
C1336       C  0.58968523  0.28211337  0.59649716     0.20900
C1337       C  0.60144501  0.30599165  0.60888710    -0.21000
C1338       C  0.59714531  0.32299618  0.59455380    -0.11900
C1339       C  0.59486164  0.26428059  0.61062089    -0.16000
C1340       C  0.59587476  0.24857863  0.58992900    -0.29900
C1341       C  0.57553579  0.33339240  0.55148448    -0.04100
C1342       C  0.59141436  0.35741779  0.54872987    -0.40700
H1343       H  0.55526581  0.28623439  0.53655606     0.12100
H1344       H  0.56291761  0.25676747  0.56113322     0.11700
H1345       H  0.61426468  0.31158540  0.62918581     0.11200
H1346       H  0.60651644  0.34129275  0.60457330     0.11400
H1347       H  0.59785500  0.26411095  0.63771120     0.14100
H1348       H  0.59426402  0.25023950  0.56272168     0.12900
H1349       H  0.55851323  0.32565651  0.53906880     0.10600
H1350       H  0.60888600  0.36526025  0.55959754     0.12600
C1351       C  0.69615659  0.42621734  0.43711711     0.18700
C1352       C  0.70276065  0.41223179  0.45515996    -0.19400
C1353       C  0.72099829  0.40990823  0.44353815    -0.11700
C1354       C  0.73351099  0.42211044  0.41393098     0.20900
C1355       C  0.72700924  0.43627132  0.39604955    -0.21000
C1356       C  0.70861947  0.43843043  0.40755311    -0.11900
C1357       C  0.75333535  0.42044135  0.40111177    -0.16000
C1358       C  0.76612940  0.41543028  0.42175675    -0.29900
C1359       C  0.67606057  0.42747219  0.44952447    -0.04100
C1360       C  0.66165559  0.42965963  0.42819244    -0.40700
H1361       H  0.69338373  0.40257399  0.47789226     0.12100
H1362       H  0.72482897  0.39813796  0.45756178     0.11700
H1363       H  0.73636399  0.44591744  0.37330207     0.11200
H1364       H  0.70439997  0.44989314  0.39346127     0.11400
H1365       H  0.75825195  0.42464450  0.37460333     0.14100
H1366       H  0.76222856  0.41275560  0.44865856     0.12900
H1367       H  0.67204119  0.42477621  0.47644571     0.10600
H1368       H  0.66462194  0.43046731  0.40103660     0.12600
C1369       C  0.58495110  0.44057348  0.68242996     0.18700
C1370       C  0.56840333  0.44289349  0.70056720    -0.19400
C1371       C  0.56821454  0.44256968  0.73591333    -0.11700
C1372       C  0.58447548  0.43957006  0.75414500     0.20900
C1373       C  0.60137720  0.43772146  0.73608591    -0.21000
C1374       C  0.60159857  0.43809735  0.70053769    -0.11900
C1375       C  0.58465852  0.43869564  0.79183161    -0.16000
C1376       C  0.56633929  0.43400939  0.81150685    -0.29900
C1377       C  0.58322996  0.44006369  0.64486593    -0.04100
C1378       C  0.59897493  0.44106106  0.62277303    -0.40700
H1379       H  0.55545608  0.44498933  0.68728837     0.12100
H1380       H  0.55542534  0.44493852  0.74860063     0.11700
H1381       H  0.61425246  0.43561203  0.74954269     0.11200
H1382       H  0.61451361  0.43605152  0.68758888     0.11400
H1383       H  0.60052826  0.44155488  0.80384689     0.14100
H1384       H  0.55006264  0.43052234  0.80033161     0.12900
H1385       H  0.56753293  0.43875865  0.63478226     0.10600
H1386       H  0.61499531  0.44255787  0.63151192     0.12600
C1387       C  0.55202334  0.41035091  0.25580681     0.18700
C1388       C  0.53926838  0.41875506  0.23887600    -0.19400
C1389       C  0.54007842  0.42079729  0.20350745    -0.11700
C1390       C  0.55387177  0.41489293  0.18451407     0.20900
C1391       C  0.56595292  0.40573841  0.20134841    -0.21000
C1392       C  0.56508202  0.40360651  0.23658954    -0.11900
C1393       C  0.55501053  0.41823614  0.14724637    -0.16000
C1394       C  0.57321801  0.42192116  0.12823085    -0.29900
C1395       C  0.55393403  0.41002301  0.29326982    -0.04100
C1396       C  0.54094007  0.41350647  0.31559482    -0.40700
H1397       H  0.52922007  0.42444059  0.25262014     0.12100
H1398       H  0.53040713  0.42765065  0.19099746     0.11700
H1399       H  0.57604187  0.40012958  0.18748830     0.11200
H1400       H  0.57497538  0.39695553  0.24895253     0.11400
H1401       H  0.54060856  0.41856535  0.13523894     0.14100
H1402       H  0.58827019  0.42276665  0.13991391     0.12900
H1403       H  0.56766295  0.40755520  0.30296528     0.10600
H1404       H  0.52655257  0.41523633  0.30720417     0.12600
C1405       C  0.52916856  0.54188120  0.28786397     0.18700
C1406       C  0.54283725  0.55159308  0.31748215    -0.19400
C1407       C  0.54724425  0.53725562  0.33890199    -0.11700
C1408       C  0.53797033  0.51264208  0.33127916     0.20900
C1409       C  0.52493845  0.50314649  0.30105057    -0.21000
C1410       C  0.52066444  0.51757867  0.27947071    -0.11900
C1411       C  0.54028005  0.49600451  0.35497007    -0.16000
C1412       C  0.55696488  0.50365908  0.37938638    -0.29900
C1413       C  0.52065678  0.55611286  0.27039026    -0.04100
C1414       C  0.51125485  0.55192715  0.23878740    -0.40700
H1415       H  0.54929137  0.57013200  0.32490663     0.12100
H1416       H  0.55694144  0.54530760  0.36213776     0.11700
H1417       H  0.51747439  0.48425215  0.29453910     0.11200
H1418       H  0.50957376  0.50924046  0.25737763     0.11400
H1419       H  0.52814068  0.47657488  0.35141301     0.14100
H1420       H  0.57022798  0.52287086  0.38192878     0.12900
H1421       H  0.52017768  0.56956484  0.28593678     0.10600
H1422       H  0.51274819  0.53993081  0.22150255     0.12600
C1423       C  0.45899591  0.49058389  0.56094883     0.18700
C1424       C  0.45117784  0.46613913  0.56728379    -0.19400
C1425       C  0.45701248  0.45347716  0.54503649    -0.11700
C1426       C  0.47110891  0.46512170  0.51629742     0.20900
C1427       C  0.47724767  0.48885073  0.50876084    -0.21000
C1428       C  0.47137923  0.50144646  0.53087392    -0.11900
C1429       C  0.48216277  0.45454149  0.49606882    -0.16000
C1430       C  0.48685789  0.43867002  0.50971288    -0.29900
C1431       C  0.45679077  0.50625330  0.58600830    -0.04100
C1432       C  0.44267800  0.49843674  0.61348281    -0.40700
H1433       H  0.44153987  0.45702943  0.59004972     0.12100
H1434       H  0.45108779  0.43486846  0.55114758     0.11700
H1435       H  0.48786310  0.49824156  0.48673377     0.11200
H1436       H  0.47744072  0.52017892  0.52512275     0.11400
H1437       H  0.49053693  0.46330234  0.47225039     0.14100
H1438       H  0.48043430  0.43146988  0.53488829     0.12900
H1439       H  0.46782896  0.52572702  0.58152563     0.10600
H1440       H  0.43021147  0.47921180  0.61782510     0.12600
loop_ 
_geom_bond_atom_site_label_1 
_geom_bond_atom_site_label_2 
_geom_bond_distance 
_geom_bond_site_symmetry_2 
_ccdc_geom_bond_type 
Zr1           O2   2.437       .  S
Zr1           O3   2.427       .  S
Zr1           O4   2.451       .  S
Zr1           O7   2.446       .  S
Zr1           O9   2.379       .  S
Zr1          O10   2.383       .  S
Zr1          O11   2.407       .  S
Zr1          O12   2.403       .  S
O2           H58   0.990       .  S
O2           H66   0.990       .  S
O3           C23   1.283       .  A
O4           C25   1.287       .  A
O5          Zr15   2.419       .  S
O5           C24   1.282       .  A
O6          Zr14   2.401       .  S
O6           C25   1.281       .  A
O7           C24   1.288       .  A
O8          Zr16   2.438       .  S
O8           C23   1.286       .  A
O9          Zr14   2.379       .  S
O9          Zr16   2.368       .  S
O10         Zr15   2.379       .  S
O10         Zr16   2.370       .  S
O10          H45   0.966       .  S
O11         Zr14   2.392       .  S
O11         Zr31   2.403       .  S
O11          H48   0.966       .  S
O12         Zr15   2.393       .  S
O12         Zr31   2.404       .  S
Zr13         O38   2.439       .  S
Zr13         O32   2.442       .  S
Zr13         O40   2.440       .  S
Zr13         O28   2.464       .  S
Zr13         O19   2.416       .  S
Zr13         O20   2.409       .  S
Zr13         O21   2.376       .  S
Zr13         O22   2.386       .  S
Zr14         O33   2.436       .  S
Zr14         O26   2.436       .  S
Zr14         O27   2.406       .  S
Zr14         O20   2.389       .  S
Zr14         O21   2.382       .  S
Zr15         O17   2.434       .  S
Zr15         O39   2.437       .  S
Zr15         O41   2.410       .  S
Zr15         O19   2.392       .  S
Zr15         O22   2.382       .  S
Zr16         O42   2.437       .  S
Zr16         O43   2.435       .  S
Zr16         O18   2.437       .  S
Zr16         O19   2.402       .  S
Zr16         O20   2.403       .  S
O17          H54   0.990       .  S
O18          H49   0.990       .  S
O18          H63   0.990       .  S
O20          H46   0.966       .  S
O21         Zr31   2.372       .  S
O22         Zr31   2.368       .  S
O22          H47   0.966       .  S
C23        C1342   1.481       .  S
C24        C1360   1.476       .  S
C25        C1378   1.483       .  S
O26          H62   0.990       .  S
O27          C29   1.279       .  A
O28          C29   1.290       .  A
C29        C1430   1.475       .  S
O30         Zr31   2.438       .  S
O30          H59   0.991       .  S
Zr31         O34   2.437       .  S
Zr31         O35   2.438       .  S
Zr31         O36   2.445       .  S
O32          C37   1.287       .  A
O33          H50   0.990       .  S
O33          H65   0.990       .  S
O34          H51   0.990       .  S
O35          H55   0.990       .  S
O35          H64   0.989       .  S
O36          C37   1.286       .  A
C37        C1412   1.486       .  S
O38          H57   0.990       .  S
O38          H61   0.990       .  S
O39          H53   0.990       .  S
O39          H60   0.990       .  S
O40          C44   1.286       .  A
O41          C44   1.283       .  A
O42          H52   0.990       .  S
O43          H56   0.990       .  S
C44        C1396   1.478       .  S
Zr67         O68   2.438       .  S
Zr67         O69   2.429       .  S
Zr67         O70   2.442       .  S
Zr67         O73   2.422   1_554  S
Zr67         O75   2.374       .  S
Zr67         O76   2.380   1_554  S
Zr67         O77   2.405       .  S
Zr67         O78   2.407   1_554  S
O68         H124   0.990       .  S
O68         H132   0.990       .  S
O69          C89   1.283       .  A
O70          C91   1.285       .  A
O71         Zr81   2.430       .  S
O71          C90   1.285       .  A
O72         Zr80   2.407       .  S
O72          C91   1.280       .  A
O73          C90   1.283       .  A
O74         Zr82   2.447   1_554  S
O74          C89   1.287       .  A
O75         Zr80   2.380       .  S
O75         Zr82   2.369   1_554  S
O76         Zr81   2.376       .  S
O76         Zr82   2.370       .  S
O76         H111   0.965       .  S
O77         Zr80   2.393       .  S
O77         Zr97   2.412   1_554  S
O77         H114   0.965       .  S
O78         Zr81   2.392       .  S
O78         Zr97   2.405       .  S
Zr79        O104   2.437       .  S
Zr79         O98   2.419       .  S
Zr79        O106   2.442       .  S
Zr79         O94   2.460       .  S
Zr79         O85   2.410       .  S
Zr79         O86   2.410       .  S
Zr79         O87   2.372       .  S
Zr79         O88   2.382       .  S
Zr80         O99   2.440       .  S
Zr80         O92   2.435       .  S
Zr80         O93   2.402       .  S
Zr80         O86   2.391   1_554  S
Zr80         O87   2.381   1_554  S
Zr81         O83   2.435       .  S
Zr81        O105   2.437       .  S
Zr81        O107   2.418       .  S
Zr81         O85   2.400       .  S
Zr81         O88   2.377       .  S
Zr82        O108   2.435       .  S
Zr82        O109   2.435       .  S
Zr82         O84   2.438   1_556  S
Zr82         O85   2.405       .  S
Zr82         O86   2.409       .  S
O83         H120   0.990       .  S
O84         H115   0.990       .  S
O84         H129   0.990       .  S
O86         H112   0.966       .  S
O87         Zr97   2.364       .  S
O88         Zr97   2.368       .  S
O88         H113   0.965       .  S
C89        C1270   1.480       .  S
C90        C1286   1.475       .  S
C91        C1394   1.475       .  S
O92         H128   0.990       .  S
O93          C95   1.281   1_554  A
O94          C95   1.289       .  A
C95        C1324   1.482       .  S
O96         Zr97   2.439   1_554  S
O96         H125   0.990       .  S
Zr97        O100   2.436   1_556  S
Zr97        O101   2.437       .  S
Zr97        O102   2.460       .  S
O98         C103   1.283       .  A
O99         H116   0.990       .  S
O99         H131   0.990       .  S
O100        H117   0.990       .  S
O101        H121   0.990       .  S
O101        H130   0.990       .  S
O102        C103   1.289       .  A
C103       C1306   1.485       .  S
O104        H123   0.990       .  S
O104        H127   0.990       .  S
O105        H119   0.990       .  S
O105        H126   0.990       .  S
O106        C110   1.287       .  A
O107        C110   1.283       .  A
O108        H118   0.990       .  S
O109        H122   0.990       .  S
C110       C1376   1.477       .  S
Zr133       O134   2.437       .  S
Zr133       O135   2.425       .  S
Zr133       O136   2.457       .  S
Zr133       O139   2.434       .  S
Zr133       O141   2.377       .  S
Zr133       O142   2.384       .  S
Zr133       O143   2.409       .  S
Zr133       O144   2.410       .  S
O134        H190   0.990       .  S
O134        H198   0.990       .  S
O135        C155   1.282       .  A
O136        C157   1.287       .  A
O137       Zr147   2.422       .  S
O137        C156   1.282       .  A
O138       Zr146   2.383       .  S
O138        C157   1.278       .  A
O139        C156   1.286       .  A
O140       Zr148   2.466       .  S
O140        C155   1.289       .  A
O141       Zr146   2.386       .  S
O141       Zr148   2.367       .  S
O142       Zr147   2.373       .  S
O142       Zr148   2.371       .  S
O142        H177   0.966       .  S
O143       Zr146   2.392       .  S
O143       Zr163   2.406       .  S
O143        H180   0.966       .  S
O144       Zr147   2.393       .  S
O144       Zr163   2.403       .  S
Zr145       O170   2.436       .  S
Zr145       O164   2.428       .  S
Zr145       O172   2.437       .  S
Zr145       O160   2.474       .  S
Zr145       O151   2.416       .  S
Zr145       O152   2.410       .  S
Zr145       O153   2.370       .  S
Zr145       O154   2.389       .  S
Zr146       O165   2.436       .  S
Zr146       O158   2.435       .  S
Zr146       O159   2.405       .  S
Zr146       O152   2.387       .  S
Zr146       O153   2.374       .  S
Zr147       O149   2.434       .  S
Zr147       O171   2.436       .  S
Zr147       O173   2.412       .  S
Zr147       O151   2.392       .  S
Zr147       O154   2.378       .  S
Zr148       O174   2.437       .  S
Zr148       O175   2.435       .  S
Zr148       O150   2.437       .  S
Zr148       O151   2.408       .  S
Zr148       O152   2.419       .  S
O149        H186   0.989       .  S
O150        H181   0.990       .  S
O150        H195   0.990       .  S
O152        H178   0.966       .  S
O153       Zr163   2.368       .  S
O154       Zr163   2.371       .  S
O154        H179   0.966       .  S
C155       C1198   1.485       .  S
C156       C1214   1.472       .  S
C157       C1250   1.479       .  S
O158        H194   0.990       .  S
O159        C161   1.280       .  A
O160        C161   1.291       .  A
C161       C1414   1.489       .  S
O162       Zr163   2.439       .  S
O162        H191   0.991       .  S
Zr163       O166   2.437       .  S
Zr163       O167   2.438       .  S
Zr163       O168   2.445       .  S
O164        C169   1.285       .  A
O165        H182   0.990       .  S
O165        H197   0.990       .  S
O166        H183   0.990       .  S
O167        H187   0.990       .  S
O167        H196   0.990       .  S
O168        C169   1.286       .  A
C169       C1322   1.480       .  S
O170        H189   0.990       .  S
O170        H193   0.990       .  S
O171        H185   0.990       .  S
O171        H192   0.990       .  S
O172        C176   1.286       .  A
O173        C176   1.282       .  A
O174        H184   0.990       .  S
O175        H188   0.990       .  S
C176       C1232   1.475       .  S
Zr199       O200   2.438       .  S
Zr199       O201   2.431       .  S
Zr199       O202   2.439       .  S
Zr199       O205   2.448       .  S
Zr199       O207   2.378       .  S
Zr199       O208   2.380       .  S
Zr199       O209   2.412       .  S
Zr199       O210   2.401       .  S
O200        H256   0.990       .  S
O200        H264   0.990       .  S
O201        C221   1.285       .  A
O202        C223   1.284       .  A
O203       Zr213   2.414       .  S
O203        C222   1.281       .  A
O204       Zr212   2.406       .  S
O204        C223   1.281       .  A
O205        C222   1.288       .  A
O206       Zr214   2.437       .  S
O206        C221   1.284       .  A
O207       Zr212   2.378       .  S
O207       Zr214   2.367       .  S
O208       Zr213   2.371       .  S
O208       Zr214   2.375       .  S
O208        H243   0.966       .  S
O209       Zr212   2.393       .  S
O209       Zr229   2.412       .  S
O209        H246   0.964       .  S
O210       Zr213   2.385       .  S
O210       Zr229   2.405       .  S
Zr211       O236   2.437       .  S
Zr211       O230   2.419       .  S
Zr211       O238   2.455       .  S
Zr211       O226   2.478       .  S
Zr211       O217   2.413       .  S
Zr211       O218   2.407       .  S
Zr211       O219   2.376       .  S
Zr211       O220   2.385       .  S
Zr212       O231   2.437       .  S
Zr212       O224   2.436       .  S
Zr212       O225   2.398       .  S
Zr212       O218   2.390       .  S
Zr212       O219   2.385       .  S
Zr213       O215   2.435       .  S
Zr213       O237   2.438       .  S
Zr213       O239   2.397       .  S
Zr213       O217   2.394       .  S
Zr213       O220   2.375       .  S
Zr214       O240   2.437       .  S
Zr214       O241   2.435       .  S
Zr214       O216   2.438       .  S
Zr214       O217   2.399       .  S
Zr214       O218   2.404       .  S
O215        H252   0.990       .  S
O216        H247   0.990       .  S
O216        H261   0.990       .  S
O218        H244   0.966       .  S
O219       Zr229   2.370       .  S
O220       Zr229   2.367       .  S
O220        H245   0.965       .  S
C221       C1160   1.478       .  S
C222       C1180   1.476       .  S
C223       C1234   1.475       .  S
O224        H260   0.990       .  S
O225        C227   1.280       .  A
O226        C227   1.293       .  A
C227       C1304   1.490       .  S
O228       Zr229   2.438       .  S
O228        H257   0.991       .  S
Zr229       O232   2.437       .  S
Zr229       O233   2.438       .  S
Zr229       O234   2.456       .  S
O230        C235   1.284       .  A
O231        H248   0.990       .  S
O231        H263   0.990       .  S
O232        H249   0.990       .  S
O233        H253   0.990       .  S
O233        H262   0.990       .  S
O234        C235   1.287       .  A
C235       C1432   1.484       .  S
O236        H255   0.990       .  S
O236        H259   0.990       .  S
O237        H251   0.990       .  S
O237        H258   0.990       .  S
O238        C242   1.288       .  A
O239        C242   1.280       .  A
O240        H250   0.990       .  S
O241        H254   0.990       .  S
C242       C1252   1.481       .  S
Zr265       O266   2.435       .  S
Zr265       O267   2.417       .  S
Zr265       O268   2.470       .  S
Zr265       O271   2.438       .  S
Zr265       O273   2.375       .  S
Zr265       O274   2.386       .  S
Zr265       O275   2.406       .  S
Zr265       O276   2.412       .  S
O266        H322   0.990       .  S
O266        H330   0.990       .  S
O267        C287   1.283       .  A
O268        C289   1.291       .  A
O269       Zr279   2.404       .  S
O269        C288   1.282       .  A
O270       Zr278   2.401       .  S
O270        C289   1.281       .  A
O271        C288   1.286       .  A
O272       Zr280   2.459       .  S
O272        C287   1.288       .  A
O273       Zr278   2.383       .  S
O273       Zr280   2.367       .  S
O274       Zr279   2.380       .  S
O274       Zr280   2.363       .  S
O274        H309   0.965       .  S
O275       Zr278   2.390       .  S
O275       Zr295   2.403       .  S
O275        H312   0.968       .  S
O276       Zr279   2.388       .  S
O276       Zr295   2.396       .  S
Zr277       O302   2.440       .  S
Zr277       O296   2.440       .  S
Zr277       O304   2.443       .  S
Zr277       O292   2.440       .  S
Zr277       O283   2.408       .  S
Zr277       O284   2.410       .  S
Zr277       O285   2.377       .  S
Zr277       O286   2.383       .  S
Zr278       O297   2.436       .  S
Zr278       O290   2.434       .  S
Zr278       O291   2.412       .  S
Zr278       O284   2.389       .  S
Zr278       O285   2.375       .  S
Zr279       O281   2.435       .  S
Zr279       O303   2.438       .  S
Zr279       O305   2.414       .  S
Zr279       O283   2.390       .  S
Zr279       O286   2.373       .  S
Zr280       O306   2.435       .  S
Zr280       O307   2.436       .  S
Zr280       O282   2.438       .  S
Zr280       O283   2.409       .  S
Zr280       O284   2.411       .  S
O281        H318   0.990       .  S
O282        H313   0.990       .  S
O282        H327   0.990       .  S
O284        H310   0.965       .  S
O285       Zr295   2.369       .  S
O286       Zr295   2.376       .  S
O286        H311   0.966       .  S
C287       C1088   1.483       .  S
C288       C1126   1.474       .  S
C289       C1144   1.488       .  S
O290        H326   0.990       .  S
O291        C293   1.282       .  A
O292        C293   1.285       .  A
C293       C1106   1.477   1_554  S
O294       Zr295   2.439       .  S
O294        H323   0.990       .  S
Zr295       O298   2.436       .  S
Zr295       O299   2.441       .  S
Zr295       O300   2.426       .  S
O296        C301   1.287       .  A
O297        H314   0.990       .  S
O297        H329   0.990       .  S
O298        H315   0.990       .  S
O299        H319   0.990       .  S
O299        H328   0.990       .  S
O300        C301   1.283       .  A
C301       C1070   1.478       .  S
O302        H321   0.990       .  S
O302        H325   0.990       .  S
O303        H317   0.990       .  S
O303        H324   0.990       .  S
O304        C308   1.287       .  A
O305        C308   1.281       .  A
O306        H316   0.990       .  S
O307        H320   0.990       .  S
C308       C1216   1.472       .  S
Zr331       O332   2.437       .  S
Zr331       O333   2.433       .  S
Zr331       O334   2.466       .  S
Zr331       O337   2.434       .  S
Zr331       O339   2.373       .  S
Zr331       O340   2.384       .  S
Zr331       O341   2.409       .  S
Zr331       O342   2.415       .  S
O332        H388   0.990       .  S
O332        H396   0.990       .  S
O333        C353   1.285       .  A
O334        C355   1.289       .  A
O335       Zr345   2.419       .  S
O335        C354   1.284       .  A
O336       Zr344   2.402       .  S
O336        C355   1.280       .  A
O337        C354   1.285       .  A
O338       Zr346   2.439       .  S
O338        C353   1.285       .  A
O339       Zr344   2.378       .  S
O339       Zr346   2.369       .  S
O340       Zr345   2.380       .  S
O340       Zr346   2.368       .  S
O340        H375   0.965       .  S
O341       Zr344   2.391       .  S
O341       Zr361   2.411       .  S
O341        H378   0.964       .  S
O342       Zr345   2.392       .  S
O342       Zr361   2.406       .  S
Zr343       O368   2.439       .  S
Zr343       O362   2.419       .  S
Zr343       O370   2.447       .  S
Zr343       O358   2.448       .  S
Zr343       O349   2.400       .  S
Zr343       O350   2.406       .  S
Zr343       O351   2.377       .  S
Zr343       O352   2.383       .  S
Zr344       O363   2.440       .  S
Zr344       O356   2.435       .  S
Zr344       O357   2.390       .  S
Zr344       O350   2.393       .  S
Zr344       O351   2.380       .  S
Zr345       O347   2.434       .  S
Zr345       O369   2.438       .  S
Zr345       O371   2.416       .  S
Zr345       O349   2.392       .  S
Zr345       O352   2.380       .  S
Zr346       O372   2.435       .  S
Zr346       O373   2.435       .  S
Zr346       O348   2.439       .  S
Zr346       O349   2.399       .  S
Zr346       O350   2.405       .  S
O347        H384   0.990       .  S
O348        H379   0.990       .  S
O348        H393   0.990       .  S
O350        H376   0.965       .  S
O351       Zr361   2.363       .  S
O352       Zr361   2.376       .  S
O352        H377   0.965       .  S
C353       C1034   1.480       .  S
C354       C1108   1.477       .  S
C355       C1052   1.485       .  S
O356        H392   0.990       .  S
O357        C359   1.279       .  A
O358        C359   1.286       .  A
C359       C1124   1.476       .  S
O360       Zr361   2.439       .  S
O360        H389   0.991       .  S
Zr361       O364   2.438       .  S
Zr361       O365   2.440       .  S
Zr361       O366   2.450       .  S
O362        C367   1.281       .  A
O363        H380   0.990       .  S
O363        H395   0.990       .  S
O364        H381   0.990       .  S
O365        H385   0.990       .  S
O365        H394   0.989       .  S
O366        C367   1.288       .  A
C367       C1016   1.480       .  S
O368        H387   0.990       .  S
O368        H391   0.990       .  S
O369        H383   0.990       .  S
O369        H390   0.990       .  S
O370        C374   1.288       .  A
O371        C374   1.281       .  A
O372        H382   0.990       .  S
O373        H386   0.990       .  S
C374       C1178   1.476       .  S
Zr397       O398   2.437       .  S
Zr397       O399   2.435       .  S
Zr397       O400   2.450       .  S
Zr397       O403   2.434       .  S
Zr397       O405   2.379       .  S
Zr397       O406   2.382       .  S
Zr397       O407   2.412       .  S
Zr397       O408   2.411       .  S
O398        H454   0.990       .  S
O398        H462   0.990       .  S
O399        C419   1.285       .  A
O400        C421   1.287       .  A
O401       Zr411   2.406       .  S
O401        C420   1.281       .  A
O402       Zr410   2.420       .  S
O402        C421   1.284       .  A
O403        C420   1.284       .  A
O404       Zr412   2.436       .  S
O404        C419   1.284       .  A
O405       Zr410   2.384       .  S
O405       Zr412   2.371       .  S
O406       Zr411   2.375       .  S
O406       Zr412   2.369       .  S
O406        H441   0.966       .  S
O407       Zr410   2.389       .  S
O407       Zr427   2.409       .  S
O407        H444   0.967       .  S
O408       Zr411   2.384       .  S
O408       Zr427   2.403       .  S
Zr409       O434   2.442       .  S
Zr409       O428   2.426       .  S
Zr409       O436   2.453       .  S
Zr409       O424   2.446       .  S
Zr409       O415   2.400       .  S
Zr409       O416   2.409       .  S
Zr409       O417   2.386       .  S
Zr409       O418   2.385       .  S
Zr410       O429   2.436       .  S
Zr410       O422   2.435       .  S
Zr410       O423   2.412       .  S
Zr410       O416   2.395       .  S
Zr410       O417   2.385       .  S
Zr411       O413   2.435       .  S
Zr411       O435   2.438       .  S
Zr411       O437   2.403       .  S
Zr411       O415   2.389       .  S
Zr411       O418   2.375       .  S
Zr412       O438   2.435       .  S
Zr412       O439   2.435       .  S
Zr412       O414   2.437       .  S
Zr412       O415   2.397       .  S
Zr412       O416   2.403       .  S
O413        H450   0.990       .  S
O414        H445   0.990       .  S
O414        H459   0.990       .  S
O416        H442   0.968       .  S
O417       Zr427   2.370       .  S
O418       Zr427   2.374       .  S
O418        H443   0.966       .  S
C419       C1054   1.479       .  S
C420        C980   1.475       .  S
C421       C1090   1.483       .  S
O422        H458   0.990       .  S
O423        C425   1.283       .  A
O424        C425   1.286       .  A
C425        C998   1.480       .  S
O426       Zr427   2.435       .  S
O426        H455   0.990       .  S
Zr427       O430   2.435       .  S
Zr427       O431   2.437       .  S
Zr427       O432   2.452       .  S
O428        C433   1.283       .  A
O429        H446   0.990       .  S
O429        H461   0.990       .  S
O430        H447   0.990       .  S
O431        H451   0.990       .  S
O431        H460   0.990       .  S
O432        C433   1.288       .  A
C433        C962   1.484       .  S
O434        H453   0.990       .  S
O434        H457   0.990       .  S
O435        H449   0.990       .  S
O435        H456   0.990       .  S
O436        C440   1.289       .  A
O437        C440   1.279       .  A
O438        H448   0.990       .  S
O439        H452   0.990       .  S
C440       C1358   1.473       .  S
Zr463       O464   2.436       .  S
Zr463       O465   2.432       .  S
Zr463       O466   2.474       .  S
Zr463       O469   2.433       .  S
Zr463       O471   2.372       .  S
Zr463       O472   2.386       .  S
Zr463       O473   2.408       .  S
Zr463       O474   2.414       .  S
O464        H520   0.990       .  S
O464        H528   0.990       .  S
O465        C485   1.285       .  A
O466        C487   1.292       .  A
O467       Zr477   2.424       .  S
O467        C486   1.285   1_556  A
O468       Zr476   2.396       .  S
O468        C487   1.279       .  A
O469        C486   1.286   1_556  A
O470       Zr478   2.454       .  S
O470        C485   1.288       .  A
O471       Zr476   2.388       .  S
O471       Zr478   2.367       .  S
O472       Zr477   2.381       .  S
O472       Zr478   2.365       .  S
O472        H507   0.966       .  S
O473       Zr476   2.390       .  S
O473       Zr493   2.408       .  S
O473        H510   0.965       .  S
O474       Zr477   2.395       .  S
O474       Zr493   2.399       .  S
Zr475       O500   2.439       .  S
Zr475       O494   2.431       .  S
Zr475       O502   2.415       .  S
Zr475       O490   2.433       .  S
Zr475       O481   2.404       .  S
Zr475       O482   2.402       .  S
Zr475       O483   2.368       .  S
Zr475       O484   2.383       .  S
Zr476       O495   2.439       .  S
Zr476       O488   2.435       .  S
Zr476       O489   2.408       .  S
Zr476       O482   2.390       .  S
Zr476       O483   2.369       .  S
Zr477       O479   2.435       .  S
Zr477       O501   2.437       .  S
Zr477       O503   2.442       .  S
Zr477       O481   2.389       .  S
Zr477       O484   2.376       .  S
Zr478       O504   2.436       .  S
Zr478       O505   2.435       .  S
Zr478       O480   2.437       .  S
Zr478       O481   2.402       .  S
Zr478       O482   2.411       .  S
O479        H516   0.990       .  S
O480        H511   0.990       .  S
O480        H525   0.990       .  S
O482        H508   0.966       .  S
O483       Zr493   2.365       .  S
O484       Zr493   2.378       .  S
O484        H509   0.966       .  S
C485       C1142   1.485       .  S
C486       C1000   1.476       .  S
C487       C1036   1.485       .  S
O488        H524   0.990       .  S
O489        C491   1.282       .  A
O490        C491   1.284       .  A
C491        C982   1.474       .  S
O492       Zr493   2.438       .  S
O492        H521   0.990       .  S
Zr493       O496   2.437       .  S
Zr493       O497   2.438       .  S
Zr493       O498   2.445       .  S
O494        C499   1.284       .  A
O495        H512   0.990       .  S
O495        H527   0.990       .  S
O496        H513   0.990       .  S
O497        H517   0.990       .  S
O497        H526   0.990       .  S
O498        C499   1.288       .  A
C499        C946   1.484       .  S
O500        H519   0.990       .  S
O500        H523   0.990       .  S
O501        H515   0.990       .  S
O501        H522   0.990       .  S
O502        C506   1.281       .  A
O503        C506   1.287       .  A
O504        H514   0.990       .  S
O505        H518   0.990       .  S
C506       C1288   1.474       .  S
Zr529       O530   2.436       .  S
Zr529       O531   2.414       .  S
Zr529       O532   2.469       .  S
Zr529       O535   2.429       .  S
Zr529       O537   2.375       .  S
Zr529       O538   2.391       .  S
Zr529       O539   2.401       .  S
Zr529       O540   2.410       .  S
O530        H586   0.990       .  S
O530        H594   0.990       .  S
O531        C551   1.282       .  A
O532        C553   1.291       .  A
O533       Zr543   2.418       .  S
O533        C552   1.284       .  A
O534       Zr542   2.396       .  S
O534        C553   1.279       .  A
O535        C552   1.284       .  A
O536       Zr544   2.464       .  S
O536        C551   1.289       .  A
O537       Zr542   2.382       .  S
O537       Zr544   2.367       .  S
O538       Zr543   2.387       .  S
O538       Zr544   2.364       .  S
O538        H573   0.965       .  S
O539       Zr542   2.386       .  S
O539       Zr559   2.400       .  S
O539        H576   0.968       .  S
O540       Zr543   2.390       .  S
O540       Zr559   2.389       .  S
Zr541       O566   2.446       .  S
Zr541       O560   2.453       .  S
Zr541       O568   2.437       .  S
Zr541       O556   2.433       .  S
Zr541       O547   2.403       .  S
Zr541       O548   2.414       .  S
Zr541       O549   2.379       .  S
Zr541       O550   2.383       .  S
Zr542       O561   2.438       .  S
Zr542       O554   2.435       .  S
Zr542       O555   2.401       .  S
Zr542       O548   2.391       .  S
Zr542       O549   2.376       .  S
Zr543       O545   2.436       .  S
Zr543       O567   2.436       .  S
Zr543       O569   2.432       .  S
Zr543       O547   2.385       .  S
Zr543       O550   2.379       .  S
Zr544       O570   2.436       .  S
Zr544       O571   2.434       .  S
Zr544       O546   2.436       .  S
Zr544       O547   2.403       .  S
Zr544       O548   2.414       .  S
O545        H582   0.990       .  S
O546        H577   0.990       .  S
O546        H591   0.990       .  S
O548        H574   0.966       .  S
O549       Zr559   2.372       .  S
O550       Zr559   2.382       .  S
O550        H575   0.965       .  S
C551        C928   1.486       .  S
C552        C874   1.474   1_554  S
C553        C910   1.484       .  S
O554        H590   0.990       .  S
O555        C557   1.280       .  A
O556        C557   1.283       .  A
C557        C890   1.470       .  S
O558       Zr559   2.438       .  S
O558        H587   0.990       .  S
Zr559       O562   2.436       .  S
Zr559       O563   2.439       .  S
Zr559       O564   2.422       .  S
O560        C565   1.289       .  A
O561        H578   0.990       .  S
O561        H593   0.990       .  S
O562        H579   0.990       .  S
O563        H583   0.990       .  S
O563        H592   0.990       .  S
O564        C565   1.282       .  A
C565        C964   1.480       .  S
O566        H585   0.991       .  S
O566        H589   0.990       .  S
O567        H581   0.990       .  S
O567        H588   0.990       .  S
O568        C572   1.285       .  A
O569        C572   1.285       .  A
O570        H580   0.990       .  S
O571        H584   0.990       .  S
C572       C1268   1.481       .  S
Zr595       O596   2.436       .  S
Zr595       O597   2.417       .  S
Zr595       O598   2.456       .  S
Zr595       O601   2.422       .  S
Zr595       O603   2.372       .  S
Zr595       O604   2.385       .  S
Zr595       O605   2.401       .  S
Zr595       O606   2.411       .  S
O596        H652   0.990       .  S
O596        H660   0.990       .  S
O597        C617   1.283       .  A
O598        C619   1.288       .  A
O599       Zr609   2.415       .  S
O599        C618   1.283       .  A
O600       Zr608   2.406       .  S
O600        C619   1.282       .  A
O601        C618   1.282       .  A
O602       Zr610   2.457       .  S
O602        C617   1.288       .  A
O603       Zr608   2.376       .  S
O603       Zr610   2.367       .  S
O604       Zr609   2.382       .  S
O604       Zr610   2.365       .  S
O604        H639   0.965       .  S
O605       Zr608   2.387       .  S
O605       Zr625   2.404       .  S
O605        H642   0.967       .  S
O606       Zr609   2.385       .  S
O606       Zr625   2.397       .  S
Zr607       O632   2.438       .  S
Zr607       O626   2.443       .  S
Zr607       O634   2.457       .  S
Zr607       O622   2.446       .  S
Zr607       O613   2.407       .  S
Zr607       O614   2.414       .  S
Zr607       O615   2.380       .  S
Zr607       O616   2.389       .  S
Zr608       O627   2.437       .  S
Zr608       O620   2.435       .  S
Zr608       O621   2.396       .  S
Zr608       O614   2.391       .  S
Zr608       O615   2.381       .  S
Zr609       O611   2.435       .  S
Zr609       O633   2.439       .  S
Zr609       O635   2.410       .  S
Zr609       O613   2.389       .  S
Zr609       O616   2.381       .  S
Zr610       O636   2.435       .  S
Zr610       O637   2.436       .  S
Zr610       O612   2.437       .  S
Zr610       O613   2.400       .  S
Zr610       O614   2.411       .  S
O611        H648   0.990       .  S
O612        H643   0.990       .  S
O612        H657   0.990       .  S
O614        H640   0.966       .  S
O615       Zr625   2.368       .  S
O616       Zr625   2.383       .  S
O616        H641   0.966       .  S
C617        C856   1.486       .  S
C618        C892   1.471       .  S
C619        C836   1.483       .  S
O620        H656   0.990       .  S
O621        C623   1.280       .  A
O622        C623   1.286       .  A
C623        C872   1.477       .  S
O624       Zr625   2.436       .  S
O624        H653   0.990       .  S
Zr625       O628   2.435       .  S
Zr625       O629   2.440       .  S
Zr625       O630   2.426       .  S
O626        C631   1.286       .  A
O627        H644   0.990       .  S
O627        H659   0.990       .  S
O628        H645   0.990       .  S
O629        H649   0.990       .  S
O629        H658   0.990       .  S
O630        C631   1.283       .  A
C631        C944   1.478       .  S
O632        H651   0.990       .  S
O632        H655   0.990       .  S
O633        H647   0.990       .  S
O633        H654   0.990       .  S
O634        C638   1.288       .  A
O635        C638   1.280       .  A
O636        H646   0.990       .  S
O637        H650   0.990       .  S
C638       C1340   1.476       .  S
Zr661       O662   2.436       .  S
Zr661       O663   2.410       .  S
Zr661       O664   2.465       .  S
Zr661       O667   2.434       .  S
Zr661       O669   2.378       .  S
Zr661       O670   2.388       .  S
Zr661       O671   2.399       .  S
Zr661       O672   2.407       .  S
O662        H718   0.990       .  S
O662        H726   0.990       .  S
O663        C683   1.281       .  A
O664        C685   1.290       .  A
O665       Zr675   2.410       .  S
O665        C684   1.282       .  A
O666       Zr674   2.411       .  S
O666        C685   1.282       .  A
O667        C684   1.285       .  A
O668       Zr676   2.464       .  S
O668        C683   1.289       .  A
O669       Zr674   2.383       .  S
O669       Zr676   2.369       .  S
O670       Zr675   2.387       .  S
O670       Zr676   2.362       .  S
O670        H705   0.966       .  S
O671       Zr674   2.396       .  S
O671       Zr691   2.398       .  S
O671        H708   0.966       .  S
O672       Zr675   2.395       .  S
O672       Zr691   2.392       .  S
Zr673       O698   2.440       .  S
Zr673       O692   2.458       .  S
Zr673       O700   2.453       .  S
Zr673       O688   2.437       .  S
Zr673       O679   2.401       .  S
Zr673       O680   2.421       .  S
Zr673       O681   2.380       .  S
Zr673       O682   2.384       .  S
Zr674       O693   2.438       .  S
Zr674       O686   2.436       .  S
Zr674       O687   2.410       .  S
Zr674       O680   2.393       .  S
Zr674       O681   2.386       .  S
Zr675       O677   2.435       .  S
Zr675       O699   2.440       .  S
Zr675       O701   2.430       .  S
Zr675       O679   2.382       .  S
Zr675       O682   2.384       .  S
Zr676       O702   2.435       .  S
Zr676       O703   2.435       .  S
Zr676       O678   2.436       .  S
Zr676       O679   2.401       .  S
Zr676       O680   2.417       .  S
O677        H714   0.990       .  S
O678        H709   0.990       .  S
O678        H723   0.990       .  S
O680        H706   0.966       .  S
O681       Zr691   2.374       .  S
O682       Zr691   2.390       .  S
O682        H707   0.965       .  S
C683        C908   1.486       .  S
C684        C818   1.475       .  S
C685        C854   1.485       .  S
O686        H722   0.990       .  S
O687        C689   1.281       .  A
O688        C689   1.282       .  A
C689        C800   1.476       .  S
O690       Zr691   2.440       .  S
O690        H719   0.991       .  S
Zr691       O694   2.438       .  S
Zr691       O695   2.438       .  S
Zr691       O696   2.412       .  S
O692        C697   1.289       .  A
O693        H710   0.990       .  S
O693        H725   0.990       .  S
O694        H711   0.990       .  S
O695        H715   0.990       .  S
O695        H724   0.990       .  S
O696        C697   1.280       .  A
C697       C1018   1.480       .  S
O698        H717   0.990       .  S
O698        H721   0.990       .  S
O699        H713   0.990       .  S
O699        H720   0.990       .  S
O700        C704   1.288       .  A
O701        C704   1.284       .  A
O702        H712   0.990       .  S
O703        H716   0.990       .  S
C704       C1196   1.489       .  S
Zr727       O728   2.435       .  S
Zr727       O729   2.418       .  S
Zr727       O730   2.475       .  S
Zr727       O733   2.435       .  S
Zr727       O735   2.374       .  S
Zr727       O736   2.386       .  S
Zr727       O737   2.402       .  S
Zr727       O738   2.414       .  S
O728        H784   0.990       .  S
O728        H792   0.990       .  S
O729        C749   1.283       .  A
O730        C751   1.292       .  A
O731       Zr741   2.412       .  S
O731        C750   1.283       .  A
O732       Zr740   2.398       .  S
O732        C751   1.280       .  A
O733        C750   1.286       .  A
O734       Zr742   2.453       .  S
O734        C749   1.287       .  A
O735       Zr740   2.382       .  S
O735       Zr742   2.371       .  S
O736       Zr741   2.381       .  S
O736       Zr742   2.362       .  S
O736        H771   0.966       .  S
O737       Zr740   2.392       .  S
O737       Zr757   2.406       .  S
O737        H774   0.966       .  S
O738       Zr741   2.394       .  S
O738       Zr757   2.403       .  S
Zr739       O764   2.439       .  S
Zr739       O758   2.421       .  S
Zr739       O766   2.437       .  S
Zr739       O754   2.440       .  S
Zr739       O745   2.402       .  S
Zr739       O746   2.407       .  S
Zr739       O747   2.374       .  S
Zr739       O748   2.384       .  S
Zr740       O759   2.440       .  S
Zr740       O752   2.435       .  S
Zr740       O753   2.399       .  S
Zr740       O746   2.391       .  S
Zr740       O747   2.375       .  S
Zr741       O743   2.434       .  S
Zr741       O765   2.437       .  S
Zr741       O767   2.428       .  S
Zr741       O745   2.388       .  S
Zr741       O748   2.377       .  S
Zr742       O768   2.437       .  S
Zr742       O769   2.434       .  S
Zr742       O744   2.436       .  S
Zr742       O745   2.401       .  S
Zr742       O746   2.408       .  S
O743        H780   0.990       .  S
O744        H775   0.990       .  S
O744        H789   0.990       .  S
O746        H772   0.966       .  S
O747       Zr757   2.365       .  S
O748       Zr757   2.378       .  S
O748        H773   0.966       .  S
C749        C838   1.481       .  S
C750        C802   1.475       .  S
C751        C926   1.487       .  S
O752        H788   0.990       .  S
O753        C755   1.280       .  A
O754        C755   1.285       .  A
C755        C820   1.476   1_556  S
O756       Zr757   2.439       .  S
O756        H785   0.990       .  S
Zr757       O760   2.437       .  S
Zr757       O761   2.440       .  S
Zr757       O762   2.442       .  S
O758        C763   1.282       .  A
O759        H776   0.990       .  S
O759        H791   0.990       .  S
O760        H777   0.990       .  S
O761        H781   0.990       .  S
O761        H790   0.990       .  S
O762        C763   1.287       .  A
C763       C1072   1.478       .  S
O764        H783   0.990       .  S
O764        H787   0.990       .  S
O765        H779   0.990       .  S
O765        H786   0.990       .  S
O766        C770   1.285       .  A
O767        C770   1.285       .  A
O768        H778   0.990       .  S
O769        H782   0.990       .  S
C770       C1162   1.482       .  S
C793        C801   1.483       .  S
C793        C794   1.404       .  A
C793        C798   1.406       .  A
C794        C795   1.397       .  A
C794        H803   1.084       .  S
C795        C796   1.407       .  A
C795        H804   1.080       .  S
C796        C799   1.483       .  S
C796        C797   1.403       .  A
C797        C798   1.394       .  A
C797        H805   1.084       .  S
C798        H806   1.080       .  S
C799        H807   1.087       .  S
C799        C800   1.348       .  D
C800        H808   1.083       .  S
C801        H809   1.087       .  S
C801        C802   1.349       .  D
C802        H810   1.083       .  S
C811        C819   1.481       .  S
C811        C812   1.405       .  A
C811        C816   1.405       .  A
C812        C813   1.394       .  A
C812        H821   1.084       .  S
C813        C814   1.404       .  A
C813        H822   1.080       .  S
C814        C817   1.480       .  S
C814        C815   1.405       .  A
C815        C816   1.395       .  A
C815        H823   1.084       .  S
C816        H824   1.080       .  S
C817        H825   1.087       .  S
C817        C818   1.350       .  D
C818        H826   1.083       .  S
C819        H827   1.087       .  S
C819        C820   1.350       .  D
C820        H828   1.083       .  S
C829        C837   1.490       .  S
C829        C830   1.407       .  A
C829        C834   1.405       .  A
C830        C831   1.404       .  A
C830        H839   1.083       .  S
C831        C832   1.407   1_565  A
C831        H840   1.082       .  S
C832        C835   1.487       .  S
C832        C833   1.404       .  A
C833        C834   1.396   1_545  A
C833        H841   1.084       .  S
C834        H842   1.081       .  S
C835        H843   1.088       .  S
C835        C836   1.350       .  D
C836        H844   1.085       .  S
C837        H845   1.087       .  S
C837        C838   1.351       .  D
C838        H846   1.085       .  S
C847        C855   1.493       .  S
C847        C848   1.407       .  A
C847        C852   1.407       .  A
C848        C849   1.401       .  A
C848        H857   1.083       .  S
C849        C850   1.406   1_545  A
C849        H858   1.082       .  S
C850        C853   1.490       .  S
C850        C851   1.407       .  A
C851        C852   1.402   1_565  A
C851        H859   1.083       .  S
C852        H860   1.081       .  S
C853        H861   1.088       .  S
C853        C854   1.352       .  D
C854        H862   1.085       .  S
C855        H863   1.087       .  S
C855        C856   1.352       .  D
C856        H864   1.084       .  S
C865        C873   1.477       .  S
C865        C866   1.403       .  A
C865        C870   1.404       .  A
C866        C867   1.395       .  A
C866        H875   1.084       .  S
C867        C868   1.405       .  A
C867        H876   1.080       .  S
C868        C871   1.481       .  S
C868        C869   1.406       .  A
C869        C870   1.395       .  A
C869        H877   1.084       .  S
C870        H878   1.081       .  S
C871        H879   1.087       .  S
C871        C872   1.351       .  D
C872        H880   1.083       .  S
C873        H881   1.087       .  S
C873        C874   1.347       .  D
C874        H882   1.085       .  S
C883        C891   1.477       .  S
C883        C884   1.403       .  A
C883        C888   1.407       .  A
C884        C885   1.392       .  A
C884        H893   1.084       .  S
C885        C886   1.404       .  A
C885        H894   1.081       .  S
C886        C889   1.475       .  S
C886        C887   1.402       .  A
C887        C888   1.394       .  A
C887        H895   1.084       .  S
C888        H896   1.080       .  S
C889        H897   1.087       .  S
C889        C890   1.347       .  D
C890        H898   1.085       .  S
C891        H899   1.087       .  S
C891        C892   1.346       .  D
C892        H900   1.083       .  S
C901        C909   1.486       .  S
C901        C902   1.405   1_545  A
C901        C906   1.405   1_545  A
C902        C903   1.402       .  A
C902        H911   1.082       .  S
C903        C904   1.408       .  A
C903        H912   1.083       .  S
C904        C907   1.492       .  S
C904        C905   1.406       .  A
C905        C906   1.400       .  A
C905        H913   1.081       .  S
C906        H914   1.083   1_565  S
C907        H915   1.087       .  S
C907        C908   1.354       .  D
C908        H916   1.084       .  S
C909        H917   1.088       .  S
C909        C910   1.352       .  D
C910        H918   1.085       .  S
C919        C927   1.493   1_556  S
C919        C920   1.408       .  A
C919        C924   1.406   1_556  A
C920        C921   1.403       .  A
C920        H929   1.083       .  S
C921        C922   1.406   1_545  A
C921        H930   1.082       .  S
C922        C925   1.491       .  S
C922        C923   1.407       .  A
C923        C924   1.400   1_566  A
C923        H931   1.083       .  S
C924        H932   1.081       .  S
C925        H933   1.088       .  S
C925        C926   1.354       .  D
C926        H934   1.085       .  S
C927        H935   1.087       .  S
C927        C928   1.353       .  D
C928        H936   1.084       .  S
C937        C945   1.492       .  S
C937        C938   1.403       .  A
C937        C942   1.411       .  A
C938        C939   1.397       .  A
C938        H947   1.083       .  S
C939        C940   1.407       .  A
C939        H948   1.082       .  S
C940        C943   1.490       .  S
C940        C941   1.404       .  A
C941        C942   1.404       .  A
C941        H949   1.083       .  S
C942        H950   1.081       .  S
C943        H951   1.087       .  S
C943        C944   1.347       .  D
C944        H952   1.086       .  S
C945        H953   1.087       .  S
C945        C946   1.347       .  D
C946        H954   1.085       .  S
C955        C963   1.491       .  S
C955        C956   1.403       .  A
C955        C960   1.407       .  A
C956        C957   1.404       .  A
C956        H965   1.083       .  S
C957        C958   1.412       .  A
C957        H966   1.080       .  S
C958        C961   1.496       .  S
C958        C959   1.404       .  A
C959        C960   1.398       .  A
C959        H967   1.083       .  S
C960        H968   1.082       .  S
C961        H969   1.087       .  S
C961        C962   1.348       .  D
C962        H970   1.084       .  S
C963        H971   1.086       .  S
C963        C964   1.346       .  D
C964        H972   1.086       .  S
C973        C981   1.476       .  S
C973        C974   1.403       .  A
C973        C978   1.404       .  A
C974        C975   1.396       .  A
C974        H983   1.084       .  S
C975        C976   1.406       .  A
C975        H984   1.081       .  S
C976        C979   1.478       .  S
C976        C977   1.404       .  A
C977        C978   1.394       .  A
C977        H985   1.084       .  S
C978        H986   1.082       .  S
C979        H987   1.087       .  S
C979        C980   1.349       .  D
C980        H988   1.084       .  S
C981        H989   1.087       .  S
C981        C982   1.348       .  D
C982        H990   1.085       .  S
C991        C999   1.487       .  S
C991        C992   1.406       .  A
C991        C996   1.406       .  A
C992        C993   1.400       .  A
C992       H1001   1.083       .  S
C993        C994   1.406       .  A
C993       H1002   1.080       .  S
C994        C997   1.485       .  S
C994        C995   1.404       .  A
C995        C996   1.395       .  A
C995       H1003   1.084       .  S
C996       H1004   1.080       .  S
C997       H1005   1.087       .  S
C997        C998   1.350       .  D
C998       H1006   1.084       .  S
C999       H1007   1.087       .  S
C999       C1000   1.349       .  D
C1000      H1008   1.083       .  S
C1009      C1017   1.493       .  S
C1009      C1010   1.403       .  A
C1009      C1014   1.409       .  A
C1010      C1011   1.401       .  A
C1010      H1019   1.083       .  S
C1011      C1012   1.411       .  A
C1011      H1020   1.080       .  S
C1012      C1015   1.494       .  S
C1012      C1013   1.403       .  A
C1013      C1014   1.399       .  A
C1013      H1021   1.083       .  S
C1014      H1022   1.081       .  S
C1015      H1023   1.087       .  S
C1015      C1016   1.346       .  D
C1016      H1024   1.083       .  S
C1017      H1025   1.087       .  S
C1017      C1018   1.345       .  D
C1018      H1026   1.085       .  S
C1027      C1035   1.490       .  S
C1027      C1028   1.406       .  A
C1027      C1032   1.407   1_655  A
C1028      C1029   1.398   1_655  A
C1028      H1037   1.084       .  S
C1029      C1030   1.407       .  A
C1029      H1038   1.081       .  S
C1030      C1033   1.492       .  S
C1030      C1031   1.406       .  A
C1031      C1032   1.403       .  A
C1031      H1039   1.083       .  S
C1032      H1040   1.081       .  S
C1033      H1041   1.087       .  S
C1033      C1034   1.349       .  D
C1034      H1042   1.084       .  S
C1035      H1043   1.088       .  S
C1035      C1036   1.354       .  D
C1036      H1044   1.084       .  S
C1045      C1053   1.491       .  S
C1045      C1046   1.407       .  A
C1045      C1050   1.406       .  A
C1046      C1047   1.404       .  A
C1046      H1055   1.083       .  S
C1047      C1048   1.407   1_655  A
C1047      H1056   1.082       .  S
C1048      C1051   1.488       .  S
C1048      C1049   1.404       .  A
C1049      C1050   1.396   1_455  A
C1049      H1057   1.084       .  S
C1050      H1058   1.081       .  S
C1051      H1059   1.088       .  S
C1051      C1052   1.352       .  D
C1052      H1060   1.085       .  S
C1053      H1061   1.087       .  S
C1053      C1054   1.349       .  D
C1054      H1062   1.085       .  S
C1063      C1071   1.486       .  S
C1063      C1064   1.401   1_556  A
C1063      C1068   1.408       .  A
C1064      C1065   1.397       .  A
C1064      H1073   1.084       .  S
C1065      C1066   1.411       .  A
C1065      H1074   1.080       .  S
C1066      C1069   1.493       .  S
C1066      C1067   1.405       .  A
C1067      C1068   1.400   1_554  A
C1067      H1075   1.083       .  S
C1068      H1076   1.082       .  S
C1069      H1077   1.087       .  S
C1069      C1070   1.347       .  D
C1070      H1078   1.083       .  S
C1071      H1079   1.087       .  S
C1071      C1072   1.344       .  D
C1072      H1080   1.086       .  S
C1081      C1089   1.488       .  S
C1081      C1082   1.405       .  A
C1081      C1086   1.407   1_655  A
C1082      C1083   1.399   1_655  A
C1082      H1091   1.083       .  S
C1083      C1084   1.407       .  A
C1083      H1092   1.081       .  S
C1084      C1087   1.492       .  S
C1084      C1085   1.407       .  A
C1085      C1086   1.402       .  A
C1085      H1093   1.083       .  S
C1086      H1094   1.082       .  S
C1087      H1095   1.087       .  S
C1087      C1088   1.352       .  D
C1088      H1096   1.084       .  S
C1089      H1097   1.088       .  S
C1089      C1090   1.350       .  D
C1090      H1098   1.085       .  S
C1099      C1107   1.485       .  S
C1099      C1100   1.404       .  A
C1099      C1104   1.407       .  A
C1100      C1101   1.396       .  A
C1100      H1109   1.084       .  S
C1101      C1102   1.406       .  A
C1101      H1110   1.080       .  S
C1102      C1105   1.484       .  S
C1102      C1103   1.404       .  A
C1103      C1104   1.397       .  A
C1103      H1111   1.084       .  S
C1104      H1112   1.080       .  S
C1105      H1113   1.087       .  S
C1105      C1106   1.350       .  D
C1106      H1114   1.084       .  S
C1107      H1115   1.087       .  S
C1107      C1108   1.349       .  D
C1108      H1116   1.083       .  S
C1117      C1125   1.478       .  S
C1117      C1118   1.405       .  A
C1117      C1122   1.404       .  A
C1118      C1119   1.395       .  A
C1118      H1127   1.084       .  S
C1119      C1120   1.403       .  A
C1119      H1128   1.081       .  S
C1120      C1123   1.477       .  S
C1120      C1121   1.404       .  A
C1121      C1122   1.394       .  A
C1121      H1129   1.084       .  S
C1122      H1130   1.081       .  S
C1123      H1131   1.087       .  S
C1123      C1124   1.350       .  D
C1124      H1132   1.084       .  S
C1125      H1133   1.087       .  S
C1125      C1126   1.349       .  D
C1126      H1134   1.084       .  S
C1135      C1143   1.491       .  S
C1135      C1136   1.405       .  A
C1135      C1140   1.407   1_455  A
C1136      C1137   1.397   1_455  A
C1136      H1145   1.084       .  S
C1137      C1138   1.407       .  A
C1137      H1146   1.080   1_554  S
C1138      C1141   1.497       .  S
C1138      C1139   1.409       .  A
C1139      C1140   1.406       .  A
C1139      H1147   1.083       .  S
C1140      H1148   1.081       .  S
C1141      H1149   1.087       .  S
C1141      C1142   1.352   1_554  D
C1142      H1150   1.084       .  S
C1143      H1151   1.088       .  S
C1143      C1144   1.353       .  D
C1144      H1152   1.085       .  S
C1153      C1161   1.486       .  S
C1153      C1154   1.403       .  A
C1153      C1158   1.408       .  A
C1154      C1155   1.395       .  A
C1154      H1163   1.084       .  S
C1155      C1156   1.405       .  A
C1155      H1164   1.082       .  S
C1156      C1159   1.486       .  S
C1156      C1157   1.405       .  A
C1157      C1158   1.403       .  A
C1157      H1165   1.083       .  S
C1158      H1166   1.082       .  S
C1159      H1167   1.087       .  S
C1159      C1160   1.348       .  D
C1160      H1168   1.086       .  S
C1161      H1169   1.087       .  S
C1161      C1162   1.348       .  D
C1162      H1170   1.085       .  S
C1171      C1179   1.492       .  S
C1171      C1172   1.402       .  A
C1171      C1176   1.411       .  A
C1172      C1173   1.399       .  A
C1172      H1181   1.083       .  S
C1173      C1174   1.410       .  A
C1173      H1182   1.081       .  S
C1174      C1177   1.489       .  S
C1174      C1175   1.401       .  A
C1175      C1176   1.398       .  A
C1175      H1183   1.083       .  S
C1176      H1184   1.081       .  S
C1177      H1185   1.087       .  S
C1177      C1178   1.344       .  D
C1178      H1186   1.085       .  S
C1179      H1187   1.087       .  S
C1179      C1180   1.344       .  D
C1180      H1188   1.084       .  S
C1189      C1197   1.492       .  S
C1189      C1190   1.404       .  A
C1189      C1194   1.407       .  A
C1190      C1191   1.404       .  A
C1190      H1199   1.083       .  S
C1191      C1192   1.408       .  A
C1191      H1200   1.082       .  S
C1192      C1195   1.492       .  S
C1192      C1193   1.406       .  A
C1193      C1194   1.403       .  A
C1193      H1201   1.083       .  S
C1194      H1202   1.083       .  S
C1195      H1203   1.087       .  S
C1195      C1196   1.352       .  D
C1196      H1204   1.086       .  S
C1197      H1205   1.086       .  S
C1197      C1198   1.345       .  D
C1198      H1206   1.087       .  S
C1207      C1215   1.483       .  S
C1207      C1208   1.401       .  A
C1207      C1212   1.408       .  A
C1208      C1209   1.397       .  A
C1208      H1217   1.083       .  S
C1209      C1210   1.407       .  A
C1209      H1218   1.082       .  S
C1210      C1213   1.482       .  S
C1210      C1211   1.402       .  A
C1211      C1212   1.398       .  A
C1211      H1219   1.083       .  S
C1212      H1220   1.082       .  S
C1213      H1221   1.087       .  S
C1213      C1214   1.343       .  D
C1214      H1222   1.086       .  S
C1215      H1223   1.087       .  S
C1215      C1216   1.342       .  D
C1216      H1224   1.086       .  S
C1225      C1233   1.477       .  S
C1225      C1226   1.402       .  A
C1225      C1230   1.405       .  A
C1226      C1227   1.394       .  A
C1226      H1235   1.084       .  S
C1227      C1228   1.406       .  A
C1227      H1236   1.081       .  S
C1228      C1231   1.481   1_556  S
C1228      C1229   1.405       .  A
C1229      C1230   1.397       .  A
C1229      H1237   1.084       .  S
C1230      H1238   1.082       .  S
C1231      H1239   1.087       .  S
C1231      C1232   1.349       .  D
C1232      H1240   1.084       .  S
C1233      H1241   1.087       .  S
C1233      C1234   1.347       .  D
C1234      H1242   1.085       .  S
C1243      C1251   1.482       .  S
C1243      C1244   1.407       .  A
C1243      C1248   1.403       .  A
C1244      C1245   1.395       .  A
C1244      H1253   1.083       .  S
C1245      C1246   1.402       .  A
C1245      H1254   1.080       .  S
C1246      C1249   1.480       .  S
C1246      C1247   1.407       .  A
C1247      C1248   1.396       .  A
C1247      H1255   1.084       .  S
C1248      H1256   1.080       .  S
C1249      H1257   1.087       .  S
C1249      C1250   1.354       .  D
C1250      H1258   1.083       .  S
C1251      H1259   1.087       .  S
C1251      C1252   1.353       .  D
C1252      H1260   1.084       .  S
C1261      C1269   1.485       .  S
C1261      C1262   1.403       .  A
C1261      C1266   1.407       .  A
C1262      C1263   1.401       .  A
C1262      H1271   1.083       .  S
C1263      C1264   1.407       .  A
C1263      H1272   1.083       .  S
C1264      C1267   1.484       .  S
C1264      C1265   1.403       .  A
C1265      C1266   1.400       .  A
C1265      H1273   1.083       .  S
C1266      H1274   1.083       .  S
C1267      H1275   1.087       .  S
C1267      C1268   1.346       .  D
C1268      H1276   1.087       .  S
C1269      H1277   1.087       .  S
C1269      C1270   1.344       .  D
C1270      H1278   1.087       .  S
C1279      C1287   1.489       .  S
C1279      C1280   1.403       .  A
C1279      C1284   1.410       .  A
C1280      C1281   1.397       .  A
C1280      H1289   1.083       .  S
C1281      C1282   1.408       .  A
C1281      H1290   1.080       .  S
C1282      C1285   1.486       .  S
C1282      C1283   1.402       .  A
C1283      C1284   1.396       .  A
C1283      H1291   1.084       .  S
C1284      H1292   1.079       .  S
C1285      H1293   1.087       .  S
C1285      C1286   1.346       .  D
C1286      H1294   1.084       .  S
C1287      H1295   1.087       .  S
C1287      C1288   1.345       .  D
C1288      H1296   1.083       .  S
C1297      C1305   1.494       .  S
C1297      C1298   1.409       .  A
C1297      C1302   1.405       .  A
C1298      C1299   1.405       .  A
C1298      H1307   1.083       .  S
C1299      C1300   1.406       .  A
C1299      H1308   1.081       .  S
C1300      C1303   1.493       .  S
C1300      C1301   1.408       .  A
C1301      C1302   1.399       .  A
C1301      H1309   1.083       .  S
C1302      H1310   1.081       .  S
C1303      H1311   1.088       .  S
C1303      C1304   1.356       .  D
C1304      H1312   1.084       .  S
C1305      H1313   1.087       .  S
C1305      C1306   1.354       .  D
C1306      H1314   1.084       .  S
C1315      C1323   1.486       .  S
C1315      C1316   1.404       .  A
C1315      C1320   1.406       .  A
C1316      C1317   1.398       .  A
C1316      H1325   1.084       .  S
C1317      C1318   1.407       .  A
C1317      H1326   1.080       .  S
C1318      C1321   1.492       .  S
C1318      C1319   1.406       .  A
C1319      C1320   1.401       .  A
C1319      H1327   1.083       .  S
C1320      H1328   1.082   1_554  S
C1321      H1329   1.087       .  S
C1321      C1322   1.349       .  D
C1322      H1330   1.084       .  S
C1323      H1331   1.088       .  S
C1323      C1324   1.350   1_554  D
C1324      H1332   1.085       .  S
C1333      C1341   1.486       .  S
C1333      C1334   1.401       .  A
C1333      C1338   1.410       .  A
C1334      C1335   1.395       .  A
C1334      H1343   1.084       .  S
C1335      C1336   1.407       .  A
C1335      H1344   1.083       .  S
C1336      C1339   1.487       .  S
C1336      C1337   1.403       .  A
C1337      C1338   1.404       .  A
C1337      H1345   1.083       .  S
C1338      H1346   1.082       .  S
C1339      H1347   1.086       .  S
C1339      C1340   1.343       .  D
C1340      H1348   1.088       .  S
C1341      H1349   1.087       .  S
C1341      C1342   1.346       .  D
C1342      H1350   1.086       .  S
C1351      C1359   1.486       .  S
C1351      C1352   1.401       .  A
C1351      C1356   1.409       .  A
C1352      C1353   1.397       .  A
C1352      H1361   1.083       .  S
C1353      C1354   1.411       .  A
C1353      H1362   1.081       .  S
C1354      C1357   1.490       .  S
C1354      C1355   1.402       .  A
C1355      C1356   1.399       .  A
C1355      H1363   1.083       .  S
C1356      H1364   1.082       .  S
C1357      H1365   1.087       .  S
C1357      C1358   1.342       .  D
C1358      H1366   1.085       .  S
C1359      H1367   1.087       .  S
C1359      C1360   1.343       .  D
C1360      H1368   1.086       .  S
C1369      C1377   1.483       .  S
C1369      C1370   1.404       .  A
C1369      C1374   1.406       .  A
C1370      C1371   1.393       .  A
C1370      H1379   1.084       .  S
C1371      C1372   1.404       .  A
C1371      H1380   1.080       .  S
C1372      C1375   1.486       .  S
C1372      C1373   1.407       .  A
C1373      C1374   1.401       .  A
C1373      H1381   1.083       .  S
C1374      H1382   1.081       .  S
C1375      H1383   1.087       .  S
C1375      C1376   1.351       .  D
C1376      H1384   1.084       .  S
C1377      H1385   1.087       .  S
C1377      C1378   1.352       .  D
C1378      H1386   1.084       .  S
C1387      C1395   1.482       .  S
C1387      C1388   1.407       .  A
C1387      C1392   1.404       .  A
C1388      C1389   1.398       .  A
C1388      H1397   1.080       .  S
C1389      C1390   1.404       .  A
C1389      H1398   1.084       .  S
C1390      C1393   1.480       .  S
C1390      C1391   1.404       .  A
C1391      C1392   1.394       .  A
C1391      H1399   1.082       .  S
C1392      H1400   1.084       .  S
C1393      H1401   1.087       .  S
C1393      C1394   1.349       .  D
C1394      H1402   1.085       .  S
C1395      H1403   1.087       .  S
C1395      C1396   1.349       .  D
C1396      H1404   1.084       .  S
C1405      C1413   1.492       .  S
C1405      C1406   1.406       .  A
C1405      C1410   1.406       .  A
C1406      C1407   1.401       .  A
C1406      H1415   1.084       .  S
C1407      C1408   1.408       .  A
C1407      H1416   1.081       .  S
C1408      C1411   1.498       .  S
C1408      C1409   1.407       .  A
C1409      C1410   1.405       .  A
C1409      H1417   1.083       .  S
C1410      H1418   1.082       .  S
C1411      H1419   1.087       .  S
C1411      C1412   1.351       .  D
C1412      H1420   1.084       .  S
C1413      H1421   1.088       .  S
C1413      C1414   1.354       .  D
C1414      H1422   1.085       .  S
C1423      C1431   1.489       .  S
C1423      C1424   1.407       .  A
C1423      C1428   1.405       .  A
C1424      C1425   1.403       .  A
C1424      H1433   1.081       .  S
C1425      C1426   1.412       .  A
C1425      H1434   1.081       .  S
C1426      C1429   1.495       .  S
C1426      C1427   1.402       .  A
C1427      C1428   1.398       .  A
C1427      H1435   1.083       .  S
C1428      H1436   1.084       .  S
C1429      H1437   1.087       .  S
C1429      C1430   1.344       .  D
C1430      H1438   1.084       .  S
C1431      H1439   1.088       .  S
C1431      C1432   1.351       .  D
C1432      H1440   1.084       .  S
