geometry optimzed in LAMMPS
_audit_creation_date              2020-12-01 
_audit_creation_method            'lammps2cif' 
_symmetry_space_group_name_H-M    'P1' 
_symmetry_Int_Tables_number       1 
_symmetry_cell_setting            triclinic 
loop_ 
_symmetry_equiv_pos_as_xyz 
  x,y,z 
_cell_length_a                    29.91292992 
_cell_length_b                    29.484477896421705 
_cell_length_c                    31.811695946224365 
_cell_angle_alpha                 89.92215798668097 
_cell_angle_beta                  89.90622635622067 
_cell_angle_gamma                 90.2508471763919 
loop_ 
_atom_site_label 
_atom_site_type_symbol 
_atom_site_fract_x 
_atom_site_fract_y 
_atom_site_fract_z 
_atom_site_charge 
O1          O  0.08714612  0.69368528  0.20123700    -0.82300
C2          C  0.16511257  0.56061700  0.30713435     0.97100
O3          O  0.12966948  0.55697191  0.28612740    -0.71400
O4          O  0.07760829  0.62419489  0.30714285    -0.75000
Al5        Al  0.09615915  0.60107556  0.25527542     1.49000
C6          C  0.06463526  0.66417020  0.31358185     0.92300
O7          O  0.15908412  0.71513409  0.29705226    -0.81200
O8          O  0.20617967  0.65619172  0.19778848    -0.74800
Al9        Al  0.12409535  0.70119249  0.24951931     1.90100
O10         O  0.21824469  0.67431290  0.28214417    -0.73900
O11         O  0.18428289  0.57184394  0.21432256    -0.73700
O12         O  0.19244742  0.59209700  0.29971842    -0.79400
O13         O  0.11170040  0.57457246  0.20407894    -0.77600
O14         O  0.13891445  0.64259488  0.25099783    -1.13700
O15         O  0.05151978  0.63419147  0.22508103    -0.72900
C16         C  0.05461437  0.66646491  0.19906932     0.97800
C17         C  0.19906993  0.70428065  0.30409416     0.94200
Al18       Al  0.19570988  0.62518744  0.24856141     1.55600
O19         O  0.07417244  0.69575090  0.28801761    -0.77500
C20         C  0.14947838  0.55835834  0.19520469     0.98400
C21         C  0.19834586  0.69716026  0.18971349     0.93300
O22         O  0.17068598  0.71919710  0.21160700    -0.82800
O23         O  0.40180188  0.78972296  0.45031092    -0.82300
C24         C  0.33304354  0.93189018  0.05081595     0.97100
O25         O  0.36527268  0.93415962  0.02546664    -0.71400
O26         O  0.41680726  0.86789760  0.05013766    -0.75000
Al27       Al  0.40069007  0.88233828  0.50269330     1.49000
C28         C  0.42826318  0.82795251  0.05938001     0.92300
O29         O  0.33231632  0.77587483  0.04692819    -0.81200
O30         O  0.28377577  0.83251182  0.45185455    -0.74800
Al31       Al  0.36685809  0.78743772  0.99869359     1.90100
O32         O  0.27454132  0.81914984  0.03401860    -0.73900
O33         O  0.31249093  0.91540770  0.46421694    -0.73700
O34         O  0.30362005  0.90166359  0.04615824    -0.79400
O35         O  0.38427739  0.90766813  0.45114691    -0.77600
O36         O  0.35517419  0.84364194  0.50143579    -1.13700
O37         O  0.44304819  0.84595340  0.47243419    -0.72900
C38         C  0.43573135  0.81468527  0.44639872     0.97800
C39         C  0.29301315  0.78814170  0.05505092     0.94200
Al40       Al  0.29935886  0.86472399  0.50123867     1.55600
O41         O  0.41694724  0.79461717  0.03654748    -0.77500
C42         C  0.34694155  0.92507191  0.44252052     0.98400
C43         C  0.29105823  0.79171734  0.44252199     0.93300
O44         O  0.31868052  0.76875132  0.46347159    -0.82800
O45         O  0.90075426  0.69714692  0.05232907    -0.82300
C46         C  0.83280038  0.56358420  0.44046174     0.97100
O47         O  0.86740085  0.56230226  0.46290112    -0.71400
O48         O  0.92429728  0.62690180  0.45214630    -0.75000
Al49       Al  0.89552267  0.60121973  0.00133600     1.49000
C50         C  0.93624984  0.66705204  0.44523897     0.92300
O51         O  0.83492346  0.71653777  0.45027005    -0.81200
O52         O  0.77991016  0.65732779  0.04739313    -0.74800
Al53       Al  0.86707165  0.70414640  0.50010734     1.90100
O54         O  0.77541528  0.67497424  0.46214246    -0.73900
O55         O  0.80103656  0.57263574  0.03285545    -0.73700
O56         O  0.80222252  0.59173443  0.44801178    -0.79400
O57         O  0.87234992  0.57170494  0.04823457    -0.77600
O58         O  0.85260643  0.64292542  0.00017247    -1.13700
O59         O  0.93331861  0.63225379  0.03949150    -0.72900
C60         C  0.92915806  0.66735457  0.06154008     0.97800
C61         C  0.79531431  0.70553364  0.44139652     0.94200
Al62       Al  0.79508146  0.62527296  0.99769980     1.55600
O63         O  0.91920904  0.69966741  0.46510792    -0.77500
C64         C  0.83332097  0.55736062  0.05389583     0.98400
C65         C  0.78922131  0.69786213  0.05667771     0.93300
O66         O  0.81830118  0.71954919  0.03602247    -0.82800
O67         O  0.58943571  0.79258019  0.30034066    -0.82300
C68         C  0.65483273  0.93157736  0.19282778     0.97100
O69         O  0.62069117  0.93219996  0.21610464    -0.71400
O70         O  0.56765238  0.86526494  0.19911194    -0.75000
Al71       Al  0.59120264  0.88729894  0.24922025     1.49000
C72         C  0.55445321  0.82530468  0.19312885     0.92300
O73         O  0.65458691  0.77734134  0.19961114    -0.81200
O74         O  0.70724055  0.83421811  0.29771290    -0.74800
Al75       Al  0.62262633  0.78831781  0.24947721     1.90100
O76         O  0.71368912  0.81959028  0.21214751    -0.73900
O77         O  0.68210153  0.91846282  0.28545681    -0.73700
O78         O  0.68501590  0.90266047  0.19895611    -0.79400
O79         O  0.61024062  0.91351874  0.29931341    -0.77600
O80         O  0.63561727  0.84748531  0.24900060    -1.13700
O81         O  0.55023406  0.85199062  0.28243863    -0.72900
C82         C  0.55668155  0.81846315  0.30626436     0.97800
C83         C  0.69434293  0.78849276  0.19144387     0.94200
Al84       Al  0.69235082  0.86699166  0.24863322     1.55600
O85         O  0.56975986  0.79271946  0.21458707    -0.77500
C86         C  0.64811698  0.93039320  0.30654916     0.98400
C87         C  0.69984065  0.79295390  0.30538227     0.93300
O88         O  0.67193718  0.77080282  0.28382896    -0.82800
O89         O  0.08558751  0.29385688  0.04711274    -0.82300
C90         C  0.16439532  0.43260827  0.44204148     0.97100
O91         O  0.13056745  0.43691628  0.46531285    -0.71400
O92         O  0.07555743  0.37197230  0.44441735    -0.75000
Al93       Al  0.09286590  0.38900663  0.99868664     1.49000
C94         C  0.06129086  0.33258078  0.43700253     0.92300
O95         O  0.15475241  0.27750203  0.44950077    -0.81200
O96         O  0.20458064  0.32997018  0.05056159    -0.74800
Al97       Al  0.12179522  0.29179841  0.49833643     1.90100
O98         O  0.21545133  0.31682872  0.46289771    -0.73900
O99         O  0.18133325  0.41510059  0.04091532    -0.73700
O100        O  0.19074686  0.39996214  0.44727828    -0.79400
O101        O  0.10890248  0.41036606  0.05146802    -0.77600
O102        O  0.13588547  0.34754369  0.99943309    -1.13700
O103        O  0.04793500  0.35320811  0.02670148    -0.72900
C104        C  0.05343496  0.32067811  0.05188449     0.97800
C105        C  0.19492175  0.28720155  0.44146914     0.94200
Al106      Al  0.19264579  0.36514904  0.00220947     1.55600
O107        O  0.07083939  0.29968009  0.46111115    -0.77500
C108        C  0.14671621  0.42509307  0.06220195     0.98400
C109        C  0.19575624  0.28869296  0.05692123     0.93300
O110        O  0.16754405  0.26831304  0.03420941    -0.82800
O111        O  0.30150592  0.08293652  0.19993487    -0.82300
C112        C  0.42958569  0.16817009  0.30590999     0.97100
O113        O  0.43622638  0.13538694  0.28133004    -0.71400
O114        O  0.37794237  0.07315067  0.29766475    -0.75000
Al115      Al  0.39607067  0.10013823  0.24788525     1.49000
C116        C  0.34058433  0.05628270  0.30692097     0.92300
O117        O  0.27904733  0.15164687  0.29867347    -0.81200
O118        O  0.33062130  0.20866695  0.19968251    -0.74800
Al119      Al  0.29429820  0.11866945  0.24939472     1.90100
O120        O  0.31341966  0.21522738  0.28388641    -0.73900
O121        O  0.41607009  0.19544797  0.21462190    -0.73700
O122        O  0.39642078  0.19383588  0.30067715    -0.79400
O123        O  0.41945689  0.12346706  0.19771663    -0.77600
O124        O  0.35085731  0.13903677  0.24878101    -1.13700
O125        O  0.36734411  0.05536867  0.21448564    -0.72900
C126        C  0.33254839  0.05546436  0.19226294     0.97800
C127        C  0.28567414  0.19315653  0.30578338     0.94200
Al128      Al  0.36295687  0.19830340  0.24957908     1.55600
O129        O  0.30582462  0.06748340  0.28664448    -0.77500
C130        C  0.43209917  0.16379405  0.19250259     0.98400
C131        C  0.29114545  0.19659317  0.19115928     0.93300
O132        O  0.27202279  0.16556172  0.21236376    -0.82800
O133        O  0.58586225  0.19741981  0.44839766    -0.82300
C134        C  0.65471462  0.06029860  0.05490924     0.97100
O135        O  0.62196374  0.05848342  0.03023637    -0.71400
O136        O  0.57121720  0.12610377  0.05136536    -0.75000
Al137      Al  0.58888415  0.10400827  0.49973896     1.49000
C138        C  0.56015115  0.16630494  0.05965008     0.92300
O139        O  0.65722746  0.21651298  0.04646364    -0.81200
O140        O  0.70578175  0.15712488  0.44986270    -0.74800
Al141      Al  0.62316199  0.20379230  0.99804111     1.90100
O142        O  0.71466542  0.17204245  0.03581895    -0.73900
O143        O  0.67772071  0.07338205  0.46108665    -0.73700
O144        O  0.68465752  0.08986259  0.04948962    -0.79400
O145        O  0.60582290  0.07997832  0.44767060    -0.77600
O146        O  0.63369814  0.14374942  0.49881752    -1.13700
O147        O  0.54567492  0.14013880  0.47035786    -0.72900
C148        C  0.55199320  0.17224019  0.44490143     0.97800
C149        C  0.69607352  0.20380741  0.05591124     0.94200
Al150      Al  0.68986438  0.12379639  0.49870224     1.55600
O151        O  0.57205067  0.19888191  0.03593907    -0.77500
C152        C  0.64371606  0.06387947  0.43877496     0.98400
C153        C  0.69813407  0.19811581  0.44139050     0.93300
O154        O  0.66907365  0.21987696  0.46178780    -0.82800
O155        O  0.89993902  0.29644698  0.19783070    -0.82300
C156        C  0.83360044  0.43562219  0.30264406     0.97100
O157        O  0.86514516  0.43790136  0.27645771    -0.71400
O158        O  0.91980466  0.37271867  0.29712285    -0.75000
Al159      Al  0.89554937  0.39173250  0.24602881     1.49000
C160        C  0.93256357  0.33288089  0.30485603     0.92300
O161        O  0.83344041  0.27956954  0.29859571    -0.81200
O162        O  0.77943491  0.33540097  0.20166944    -0.74800
Al163      Al  0.86592186  0.29186117  0.24861585     1.90100
O164        O  0.77494869  0.32207087  0.28690413    -0.73900
O165        O  0.80409819  0.41982909  0.21227978    -0.73700
O166        O  0.80450658  0.40478819  0.29930123    -0.79400
O167        O  0.87481424  0.41339497  0.19440555    -0.77600
O168        O  0.85207425  0.35050033  0.24844117    -1.13700
O169        O  0.93799383  0.35679350  0.21527823    -0.72900
C170        C  0.93259293  0.32281587  0.19203132     0.97800
C171        C  0.79403509  0.29112674  0.30754360     0.94200
Al172      Al  0.79535579  0.36891292  0.24998562     1.55600
O173        O  0.91773560  0.29918328  0.28433214    -0.77500
C174        C  0.83615718  0.42834498  0.18732408     0.98400
C175        C  0.78782196  0.29461762  0.19308249     0.93300
O176        O  0.81720149  0.27320880  0.21352882    -0.82800
C177        C  0.71986939  0.22671752  0.09096554    -0.06000
C178        C  0.70509307  0.26929943  0.10503018    -0.33400
C179        C  0.72652645  0.29172532  0.13818776     0.35900
C180        C  0.76343975  0.27150134  0.15844185    -0.06300
C181        C  0.77778587  0.22865296  0.14469810    -0.33300
C182        C  0.75674616  0.20656517  0.11114120     0.35800
H183        H  0.67693992  0.28564860  0.09000783     0.16100
O184        O  0.71126013  0.33361354  0.15005373    -0.60800
H185        H  0.80592176  0.21222735  0.15965341     0.16100
O186        O  0.77195183  0.16472911  0.09911694    -0.60900
H187        H  0.79599933  0.17099832  0.07838860     0.43100
H188        H  0.68835134  0.32751586  0.17196083     0.43100
C189        C  0.72322942  0.22140540  0.40725603    -0.06000
C190        C  0.70607982  0.26158010  0.38995944    -0.33400
C191        C  0.72865017  0.28457737  0.35776644     0.35900
C192        C  0.76962617  0.26780846  0.34218741    -0.06300
C193        C  0.78701652  0.22781040  0.35976231    -0.33300
C194        C  0.76416493  0.20458339  0.39178424     0.35800
H195        H  0.67462101  0.27515049  0.40111584     0.16100
O196        O  0.70988851  0.32321044  0.34160167    -0.60800
H197        H  0.81832432  0.21409019  0.34840710     0.16100
O198        O  0.78220940  0.16542541  0.40756691    -0.60900
H199        H  0.80326611  0.17542234  0.42979513     0.43100
H200        H  0.72328725  0.34849706  0.35786714     0.43100
C201        C  0.53208525  0.17377757  0.09713463    -0.06000
C202        C  0.49560109  0.20364516  0.09602180    -0.33400
C203        C  0.46355413  0.20300616  0.12842979     0.35900
C204        C  0.46816956  0.17234503  0.16206633    -0.06300
C205        C  0.50641374  0.14528716  0.16460978    -0.33300
C206        C  0.53849655  0.14628600  0.13287797     0.35800
H207        H  0.49038985  0.22518979  0.06887060     0.16100
O208        O  0.42658102  0.23012825  0.12556286    -0.60800
H209        H  0.51070372  0.12214107  0.19079977     0.16100
O210        O  0.57505753  0.11854576  0.13619451    -0.60900
H211        H  0.60056495  0.13904859  0.14244323     0.43100
H212        H  0.40373440  0.21139883  0.11103012     0.43100
C213        C  0.46121494  0.17536537  0.34093966    -0.06000
C214        C  0.44520292  0.18371079  0.38174140    -0.33400
C215        C  0.47462739  0.18406538  0.41612518     0.35900
C216        C  0.52080172  0.17796890  0.40958765    -0.06300
C217        C  0.53693168  0.17180213  0.36869966    -0.33300
C218        C  0.50746353  0.16919533  0.33468485     0.35800
H219        H  0.40965184  0.18756110  0.38720873     0.16100
O220        O  0.45788074  0.18897440  0.45602102    -0.60800
H221        H  0.57231933  0.16644534  0.36341847     0.16100
O222        O  0.52417109  0.16029501  0.29537260    -0.60900
H223        H  0.52783640  0.12690249  0.29434514     0.43100
H224        H  0.45855662  0.22204646  0.46150651     0.43100
C225        C  0.02282016  0.31538227  0.08776184    -0.06000
C226        C  0.03972227  0.31889134  0.12874449    -0.33400
C227        C  0.01066449  0.31961469  0.16331723     0.35900
C228        C  0.96414008  0.31570073  0.15709176    -0.06300
C229        C  0.94751142  0.31025207  0.11622264    -0.33300
C230        C  0.97649684  0.31098456  0.08159367     0.35800
H231        H  0.07534961  0.32301840  0.13377330     0.16100
O232        O  0.02791567  0.32529403  0.20292263    -0.60800
H233        H  0.91179531  0.30782436  0.11099927     0.16100
O234        O  0.95931990  0.30736696  0.04179273    -0.60900
H235        H  0.95162493  0.33874768  0.03345795     0.43100
H236        H  0.03002038  0.29430946  0.21481233     0.43100
C237        C  0.96762510  0.32697960  0.33634191    -0.06000
C238        C  0.00525504  0.35516075  0.33364167    -0.33400
C239        C  0.03747640  0.35480015  0.36504230     0.35900
C240        C  0.03192063  0.32647921  0.40043494    -0.06300
C241        C  0.99543400  0.29634311  0.40213274    -0.33300
C242        C  0.96311956  0.29658604  0.37020120     0.35800
H243        H  0.00922154  0.37826676  0.30733307     0.16100
O244        O  0.07351427  0.38356121  0.36153322    -0.60800
H245        H  0.99067918  0.27453816  0.42922885     0.16100
O246        O  0.92624753  0.26898094  0.37348375    -0.60900
H247        H  0.90361117  0.28723118  0.38868005     0.43100
H248        H  0.09854139  0.36428800  0.35173457     0.43100
C249        C  0.26694597  0.21966764  0.15629215    -0.06000
C250        C  0.22660819  0.20152615  0.14081040    -0.33400
C251        C  0.20306499  0.22323557  0.10839058     0.35900
C252        C  0.21956498  0.26407945  0.09090057    -0.06300
C253        C  0.25976409  0.28208574  0.10637476    -0.33300
C254        C  0.28355692  0.26023086  0.13825318     0.35800
H255        H  0.21318077  0.17034023  0.15383813     0.16100
O256        O  0.16383841  0.20433158  0.09442045    -0.60800
H257        H  0.27326653  0.31330182  0.09346026     0.16100
O258        O  0.32241979  0.27980621  0.15232436    -0.60900
H259        H  0.34504483  0.27308594  0.13040164     0.43100
H260        H  0.13990439  0.21995069  0.11036384     0.43100
C261        C  0.26147374  0.21677633  0.34020826    -0.04400
C262        C  0.27745700  0.25901489  0.35435941    -0.33400
C263        C  0.25620819  0.28222526  0.38704912     0.35900
C264        C  0.21811249  0.26337011  0.40665010    -0.06300
C265        C  0.20160617  0.22147861  0.39212334    -0.33300
C266        C  0.22287883  0.19823345  0.35931179     0.35800
H267        H  0.30688891  0.27421482  0.34019194     0.16100
O268        O  0.27293872  0.32353405  0.39927535    -0.60800
H269        H  0.17218868  0.20641266  0.40644772     0.16100
O270        O  0.20553572  0.15748403  0.34628661    -0.60900
H271        H  0.18395287  0.16523850  0.32377281     0.43100
H272        H  0.25565430  0.34625394  0.38310032     0.43100
C273        C  0.65630554  0.02776082  0.09044490    -0.06000
C274        C  0.69711856  0.01197086  0.10669545    -0.33400
C275        C  0.69777971  0.97991890  0.13962852     0.35900
C276        C  0.65723363  0.96448135  0.15754386    -0.06300
C277        C  0.61681399  0.98103446  0.14152468    -0.33300
C278        C  0.61603099  0.01175457  0.10828151     0.35800
H279        H  0.72841971  0.02389440  0.09342683     0.16100
O280        O  0.73804427  0.96520091  0.15487233    -0.60800
H281        H  0.58517314  0.96968678  0.15454057     0.16100
O282        O  0.57540353  0.02722948  0.09451184    -0.60900
H283        H  0.56393650  0.00328998  0.07540315     0.43100
H284        H  0.74616550  0.93895805  0.13698465     0.43100
C285        C  0.65064029  0.96642526  0.33849085    -0.06000
C286        C  0.61432497  0.99609680  0.34168940    -0.33400
C287        C  0.61260445  0.02892007  0.37301501     0.35900
C288        C  0.64745147  0.03232350  0.40273247    -0.06300
C289        C  0.68474116  0.00360495  0.39870584    -0.33300
C290        C  0.68643936  0.97068539  0.36683673     0.35800
H291        H  0.58671817  0.99369838  0.31974490     0.16100
O292        O  0.57611315  0.05691534  0.37458924    -0.60800
H293        H  0.71191735  0.00560246  0.42109824     0.16100
O294        O  0.72220011  0.94182543  0.36476979    -0.60900
H295        H  0.71373343  0.91545161  0.38248457     0.43100
H296        H  0.58258488  0.08141802  0.35407127     0.43100
C297        C  0.82953670  0.45733269  0.15017620    -0.06000
C298        C  0.79836277  0.49289338  0.15109927    -0.33400
C299        C  0.79716097  0.52489961  0.11846939     0.35900
C300        C  0.82696706  0.52088991  0.08450955    -0.06300
C301        C  0.85576801  0.48371363  0.08225569    -0.33300
C302        C  0.85725171  0.45203119  0.11466592     0.35800
H303        H  0.77678868  0.49734362  0.17815502     0.16100
O304        O  0.76882830  0.56123933  0.12127564    -0.60800
H305        H  0.87841900  0.48011986  0.05582967     0.16100
O306        O  0.88603642  0.41603599  0.11142429    -0.60900
H307        H  0.91611408  0.42857680  0.11772569     0.43100
H308        H  0.78710146  0.58619561  0.13325901     0.43100
C309        C  0.83197941  0.46934182  0.33724428    -0.06000
C310        C  0.79216454  0.47738648  0.35967596    -0.33400
C311        C  0.79111425  0.50906298  0.39275625     0.35900
C312        C  0.83040904  0.53241988  0.40420899    -0.06300
C313        C  0.86995671  0.52417050  0.38192829    -0.33300
C314        C  0.87103634  0.49337207  0.34878884     0.35800
H315        H  0.76189782  0.45905331  0.35166604     0.16100
O316        O  0.75237287  0.51495517  0.41514475    -0.60800
H317        H  0.90059564  0.54163966  0.39045057     0.16100
O318        O  0.91123993  0.48542615  0.32936165    -0.60900
H319        H  0.91475735  0.51026265  0.30853427     0.43100
H320        H  0.73487299  0.53732884  0.39881568     0.43100
C321        C  0.72423976  0.77020716  0.33984682    -0.06000
C322        C  0.76570423  0.78746174  0.35305140    -0.33400
C323        C  0.78950972  0.76667839  0.38563910     0.35900
C324        C  0.77150900  0.72832506  0.40635648    -0.06300
C325        C  0.72977665  0.71138441  0.39326479    -0.33300
C326        C  0.70641859  0.73166705  0.36021525     0.35800
H327        H  0.78003387  0.81703375  0.33780118     0.16100
O328        O  0.82975717  0.78495368  0.39759466    -0.60800
H329        H  0.71501552  0.68209150  0.40860393     0.16100
O330        O  0.66533004  0.71456421  0.34929019    -0.60900
H331        H  0.67171064  0.68903427  0.32993640     0.43100
H332        H  0.85138933  0.77501957  0.37586634     0.43100
C333        C  0.76572131  0.72069191  0.09186069    -0.06000
C334        C  0.72802342  0.70017088  0.11027720    -0.33400
C335        C  0.70446788  0.72174510  0.14259009     0.35900
C336        C  0.71865788  0.76459507  0.15745652    -0.06300
C337        C  0.75690062  0.78460401  0.13971664    -0.33300
C338        C  0.78049886  0.76303978  0.10751816     0.35800
H339        H  0.71641877  0.66735047  0.09944078     0.16100
O340        O  0.66848290  0.69986419  0.16026760    -0.60800
H341        H  0.76860562  0.81732790  0.15070741     0.16100
O342        O  0.81803245  0.78386788  0.09172217    -0.60900
H343        H  0.84283952  0.77372588  0.11010397     0.43100
H344        H  0.64304613  0.70616261  0.14120460     0.43100
C345        C  0.33151124  0.96429087  0.08641954    -0.06000
C346        C  0.29090702  0.97550038  0.10617424    -0.33400
C347        C  0.29008994  0.00587085  0.14031227     0.35900
C348        C  0.33042028  0.02413703  0.15595774    -0.06300
C349        C  0.37074318  0.01246540  0.13634369    -0.33300
C350        C  0.37155946  0.98355341  0.10178717     0.35800
H351        H  0.25980098  0.96099903  0.09496592     0.16100
O352        O  0.25007237  0.01596375  0.15909174    -0.60800
H353        H  0.40215661  0.02629424  0.14758455     0.16100
O354        O  0.41220316  0.97289510  0.08444247    -0.60900
H355        H  0.41911306  0.99812133  0.06474222     0.43100
H356        H  0.23804511  0.04191558  0.14285326     0.43100
C357        C  0.34430170  0.95792250  0.40730159    -0.06000
C358        C  0.30270966  0.97426737  0.39324821    -0.33400
C359        C  0.30024587  0.00617148  0.36042565     0.35900
C360        C  0.33978213  0.02212287  0.34117686    -0.06300
C361        C  0.38105583  0.00536474  0.35525847    -0.33300
C362        C  0.38364061  0.97382749  0.38757462     0.35800
H363        H  0.27202186  0.96245485  0.40779319     0.16100
O364        O  0.25921852  0.02149299  0.34771957    -0.60800
H365        H  0.41216614  0.01669678  0.34115892     0.16100
O366        O  0.42524697  0.95999912  0.40029816    -0.60900
H367        H  0.43325543  0.93472342  0.38119208     0.43100
H368        H  0.25376229  0.04918979  0.36458231     0.43100
C369        C  0.45629693  0.82098875  0.09670473    -0.06000
C370        C  0.49076495  0.78869412  0.09640246    -0.33400
C371        C  0.52203794  0.78736625  0.12922011     0.35900
C372        C  0.51861372  0.81856160  0.16244963    -0.06300
C373        C  0.48230963  0.84835171  0.16408039    -0.33300
C374        C  0.45102210  0.84939491  0.13185788     0.35800
H375        H  0.49488509  0.76630700  0.06970819     0.16100
O376        O  0.55694445  0.75741564  0.12733574    -0.60800
H377        H  0.47899387  0.87197734  0.18998226     0.16100
O378        O  0.41621896  0.87945472  0.13439326    -0.60900
H379        H  0.38990845  0.86098262  0.14285904     0.43100
H380        H  0.58247601  0.77504663  0.11575177     0.43100
C381        C  0.46630179  0.80906902  0.41046682    -0.06000
C382        C  0.51261205  0.80704739  0.41714714    -0.33400
C383        C  0.54238594  0.80720199  0.38307256     0.35900
C384        C  0.52592463  0.81083312  0.34178982    -0.06300
C385        C  0.47958552  0.81211835  0.33508895    -0.33300
C386        C  0.44978628  0.81068097  0.36908002     0.35800
H387        H  0.52569693  0.80621783  0.44888111     0.16100
O388        O  0.58753469  0.80603746  0.39050455    -0.60800
H389        H  0.46654968  0.81522329  0.30345093     0.16100
O390        O  0.40468373  0.81318796  0.36164311    -0.60900
H391        H  0.39723903  0.84582439  0.36397566     0.43100
H392        H  0.59698892  0.83826688  0.39242982     0.43100
C393        C  0.14920140  0.45593169  0.09893626    -0.06000
C394        C  0.18971176  0.47716362  0.11002730    -0.33400
C395        C  0.19110827  0.50976773  0.14219731     0.35900
C396        C  0.15144442  0.52202179  0.16324652    -0.06300
C397        C  0.11166142  0.49902645  0.15354355    -0.33300
C398        C  0.11025008  0.46622371  0.12224902     0.35800
H399        H  0.22021283  0.46917238  0.09325679     0.16100
O400        O  0.23118162  0.52960999  0.15239467    -0.60800
H401        H  0.08098406  0.50650066  0.17029323     0.16100
O402        O  0.07040065  0.44426831  0.11514899    -0.60900
H403        H  0.05300163  0.46491894  0.09679113     0.43100
H404        H  0.23465654  0.55534634  0.13254234     0.43100
C405        C  0.17311896  0.52842033  0.34144300    -0.06000
C406        C  0.16992679  0.54370541  0.38296190    -0.33400
C407        C  0.16866703  0.51272642  0.41628023     0.35900
C408        C  0.17207800  0.46588823  0.40825078    -0.06300
C409        C  0.17844128  0.45083461  0.36686309    -0.33300
C410        C  0.17803997  0.48178778  0.33338464     0.35800
H411        H  0.16596710  0.57954700  0.38936190     0.16100
O412        O  0.16246693  0.52840246  0.45643076    -0.60800
H413        H  0.18103471  0.41487800  0.36030516     0.16100
O414        O  0.18190274  0.46622418  0.29292439    -0.60900
H415        H  0.15096180  0.45878233  0.28403641     0.43100
H416        H  0.19299006  0.53173684  0.46822865     0.43100
C417        C  0.95727493  0.67139423  0.09931590    -0.06000
C418        C  0.98723970  0.70769745  0.10428424    -0.33400
C419        C  0.01887315  0.70736022  0.13699218     0.35900
C420        C  0.01996059  0.67075111  0.16579030    -0.06300
C421        C  0.98818441  0.63574715  0.16156402    -0.33300
C422        C  0.95738319  0.63577613  0.12872902     0.35800
H423        H  0.98751892  0.73521619  0.08167976     0.16100
O424        O  0.04873480  0.74262189  0.14009929    -0.60800
H425        H  0.98791566  0.60722740  0.18307453     0.16100
O426        O  0.92827778  0.59990702  0.12489754    -0.60900
H427        H  0.89944235  0.61090950  0.13635687     0.43100
H428        H  0.07353961  0.73477086  0.12078200     0.43100
C429        C  0.03641702  0.67271110  0.35052326    -0.06000
C430        C  0.99974702  0.70217292  0.34774699    -0.33400
C431        C  0.96747253  0.70291844  0.37977476     0.35900
C432        C  0.97239918  0.67445841  0.41494661    -0.06300
C433        C  0.01077286  0.64786092  0.41904644    -0.33300
C434        C  0.04281443  0.64706713  0.38737045     0.35800
H435        H  0.99449381  0.72212503  0.31957004     0.16100
O436        O  0.92991574  0.72888589  0.37501471    -0.60800
H437        H  0.01504580  0.62622433  0.44632323     0.16100
O438        O  0.07925005  0.61939463  0.39187792    -0.60900
H439        H  0.10368401  0.63960818  0.40168688     0.43100
H440        H  0.90776118  0.70875055  0.36113679     0.43100
C441        C  0.26828348  0.76530696  0.08932245    -0.06000
C442        C  0.28213273  0.72228903  0.10286102    -0.33400
C443        C  0.25962313  0.69961026  0.13515816     0.35900
C444        C  0.22234550  0.71990962  0.15476963    -0.06300
C445        C  0.20858712  0.76305656  0.14127239    -0.33300
C446        C  0.23120678  0.78574902  0.10894839     0.35800
H447        H  0.31049578  0.70588259  0.08819267     0.16100
O448        O  0.27453725  0.65761302  0.14714632    -0.60800
H449        H  0.18017608  0.77944441  0.15585235     0.16100
O450        O  0.21690894  0.82803053  0.09714229    -0.60900
H451        H  0.23645891  0.84962598  0.11249802     0.43100
H452        H  0.29596936  0.66345071  0.17033826     0.43100
C453        C  0.22350033  0.72684896  0.33869226    -0.06000
C454        C  0.21155666  0.77091972  0.35088654    -0.33400
C455        C  0.23309284  0.79257446  0.38442619     0.35900
C456        C  0.26735978  0.77011531  0.40665629    -0.06300
C457        C  0.27918597  0.72593517  0.39431542    -0.33300
C458        C  0.25746027  0.70426820  0.36095825     0.35800
H459        H  0.18538035  0.78879456  0.33427599     0.16100
O460        O  0.22036671  0.83573528  0.39492984    -0.60800
H461        H  0.30522624  0.70773386  0.41078837     0.16100
O462        O  0.26897474  0.66054496  0.35116509    -0.60900
H463        H  0.24829792  0.64115392  0.36778165     0.43100
H464        H  0.19513284  0.83180534  0.41489839     0.43100
O465        O  0.08738692  0.69137081  0.70143599    -0.82300
C466        C  0.16127864  0.55724917  0.80879529     0.97100
O467        O  0.12719599  0.55285699  0.78585099    -0.71400
O468        O  0.07287004  0.61882242  0.80369162    -0.75000
Al469      Al  0.09505588  0.59669068  0.75298766     1.49000
C470        C  0.06105794  0.65879582  0.81179430     0.92300
O471        O  0.15722712  0.70983123  0.79908414    -0.81200
O472        O  0.20725499  0.65275184  0.70025657    -0.74800
Al473      Al  0.12330943  0.69713473  0.75058539     1.90100
O474        O  0.21663515  0.66947478  0.78450938    -0.73900
O475        O  0.18556288  0.56815023  0.71543928    -0.73700
O476        O  0.18945446  0.58800461  0.80155306    -0.79400
O477        O  0.11370899  0.57126302  0.70232691    -0.77600
O478        O  0.13788479  0.63846101  0.75127568    -1.13700
O479        O  0.05210835  0.62981164  0.72073562    -0.72900
C480        C  0.05543190  0.66384957  0.69679104     0.97800
C481        C  0.19718504  0.69910627  0.80636230     0.94200
Al482      Al  0.19495817  0.62105608  0.75049352     1.55600
O483        O  0.07247868  0.69134302  0.78804627    -0.77500
C484        C  0.15217543  0.55710829  0.69321414     0.98400
C485        C  0.19931276  0.69379286  0.69227320     0.93300
O486        O  0.17096171  0.71543127  0.71380239    -0.82800
O487        O  0.40331633  0.79125244  0.94986392    -0.82300
C488        C  0.33768126  0.92942903  0.55648325     0.97100
O489        O  0.37146768  0.92916469  0.53292471    -0.71400
O490        O  0.41955747  0.85981970  0.55455745    -0.75000
Al491      Al  0.39664739  0.88711349  0.99727334     1.49000
C492        C  0.42941822  0.81916430  0.56229336     0.92300
O493        O  0.33239003  0.77224514  0.54836096    -0.81200
O494        O  0.28241128  0.83087164  0.94901358    -0.74800
Al495      Al  0.36670027  0.78438607  0.50003192     1.90100
O496        O  0.27597343  0.81832867  0.53767722    -0.73900
O497        O  0.30734897  0.91503102  0.95845908    -0.73700
O498        O  0.30727746  0.90028324  0.55121239    -0.79400
O499        O  0.37905764  0.90883048  0.94431011    -0.77600
O500        O  0.35303826  0.84622592  0.99763533    -1.13700
O501        O  0.44035747  0.85142411  0.96921420    -0.72900
C502        C  0.43660732  0.81711999  0.94601044     0.97800
C503        C  0.29378383  0.78594760  0.55762480     0.94200
Al504      Al  0.29651128  0.86507299  0.99697240     1.55600
O505        O  0.41786167  0.78750256  0.53757918    -0.77500
C506        C  0.34078149  0.92374089  0.93509480     0.98400
C507        C  0.29093992  0.79006594  0.94089969     0.93300
O508        O  0.31984151  0.76872017  0.96191305    -0.82800
O509        O  0.90127448  0.69935301  0.55057042    -0.82300
C510        C  0.83359675  0.56190414  0.94044037     0.97100
O511        O  0.86765507  0.56035659  0.96359273    -0.71400
O512        O  0.92422472  0.62499712  0.95463382    -0.75000
Al513      Al  0.89601974  0.60355456  0.49976016     1.49000
C514        C  0.93652634  0.66494520  0.94738966     0.92300
O515        O  0.83578262  0.71549707  0.95139336    -0.81200
O516        O  0.78051158  0.65946927  0.54730668    -0.74800
Al517      Al  0.86724000  0.70224948  0.00151491     1.90100
O518        O  0.77612836  0.67372128  0.96203814    -0.73900
O519        O  0.80195585  0.57505975  0.53349609    -0.73700
O520        O  0.80317256  0.59045185  0.94746198    -0.79400
O521        O  0.87362620  0.57488877  0.54741846    -0.77600
O522        O  0.85273187  0.64493258  0.49917129    -1.13700
O523        O  0.93476606  0.63511356  0.53689234    -0.72900
C524        C  0.93052550  0.67013045  0.55903989     0.97800
C525        C  0.79629724  0.70463114  0.94195866     0.94200
Al526      Al  0.79510384  0.62704586  0.49788968     1.55600
O527        O  0.91981471  0.69786669  0.96704206    -0.77500
C528        C  0.83476858  0.56049892  0.55420794     0.98400
C529        C  0.78943444  0.70017828  0.55603621     0.93300
O530        O  0.81841308  0.72178600  0.53515293    -0.82800
O531        O  0.59332204  0.78975399  0.80242424    -0.82300
C532        C  0.65139692  0.93050955  0.69288198     0.97100
O533        O  0.61666375  0.92961677  0.71542358    -0.71400
O534        O  0.56427376  0.86098259  0.70235432    -0.75000
Al535      Al  0.58978902  0.88526665  0.75111001     1.49000
C536        C  0.55279356  0.82039086  0.69696000     0.92300
O537        O  0.65405859  0.77799832  0.69935506    -0.81200
O538        O  0.70780551  0.83444898  0.79830350    -0.74800
Al539      Al  0.62423751  0.78691226  0.75060556     1.90100
O540        O  0.71305532  0.82037464  0.71197407    -0.73900
O541        O  0.68153200  0.91799226  0.78635065    -0.73700
O542        O  0.68283293  0.90319460  0.69993508    -0.79400
O543        O  0.60963403  0.91450927  0.79983397    -0.77600
O544        O  0.63532558  0.84663991  0.75026986    -1.13700
O545        O  0.55259191  0.84940184  0.78724255    -0.72900
C546        C  0.56102892  0.81560699  0.81023902     0.97800
C547        C  0.69356506  0.78967986  0.69080278     0.94200
Al548      Al  0.69162635  0.86721470  0.74922338     1.55600
O549        O  0.56988851  0.78899551  0.71844563    -0.77500
C550        C  0.64780817  0.93048672  0.80733241     0.98400
C551        C  0.70224702  0.79268989  0.80499049     0.93300
O552        O  0.67557468  0.77016996  0.78249618    -0.82800
O553        O  0.08725439  0.29939396  0.54785294    -0.82300
C554        C  0.16031969  0.43352736  0.94803220     0.97100
O555        O  0.12608733  0.43618220  0.97093579    -0.71400
O556        O  0.07389290  0.37043696  0.94554120    -0.75000
Al557      Al  0.09659067  0.39251824  0.49599353     1.49000
C558        C  0.06103450  0.33101099  0.93615108     0.92300
O559        O  0.15564098  0.27800477  0.94916929    -0.81200
O560        O  0.20735767  0.33369681  0.54804465    -0.74800
Al561      Al  0.12096929  0.28910081  0.99764632     1.90100
O562        O  0.21476792  0.31900985  0.96486826    -0.73900
O563        O  0.18707386  0.41888571  0.53369836    -0.73700
O564        O  0.18794015  0.40204323  0.95339945    -0.79400
O565        O  0.11493264  0.41631209  0.54732926    -0.77600
O566        O  0.13827516  0.34987856  0.49744850    -1.13700
O567        O  0.05130997  0.35950198  0.52645904    -0.72900
C568        C  0.05519399  0.32655927  0.55147919     0.97800
C569        C  0.19580428  0.28910337  0.94250554     0.94200
Al570      Al  0.19560527  0.36591970  0.49797837     1.55600
O571        O  0.07065960  0.29745008  0.95950066    -0.77500
C572        C  0.15335198  0.43201222  0.55467254     0.98400
C573        C  0.19759987  0.29311771  0.55665721     0.93300
O574        O  0.16887715  0.27199132  0.53500074    -0.82800
O575        O  0.30299045  0.09046448  0.69798219    -0.82300
C576        C  0.43001947  0.17267026  0.80794672     0.97100
O577        O  0.43555228  0.13743526  0.78621420    -0.71400
O578        O  0.37609662  0.07447831  0.79780809    -0.75000
Al579      Al  0.39702135  0.10399324  0.74964549     1.49000
C580        C  0.33799365  0.05758548  0.80365524     0.92300
O581        O  0.28208569  0.15625315  0.79910104    -0.81200
O582        O  0.33271063  0.21480310  0.69993862    -0.74800
Al583      Al  0.29572777  0.12477571  0.74865102     1.90100
O584        O  0.31617825  0.22033224  0.78485106    -0.73900
O585        O  0.41747222  0.20046054  0.71462770    -0.73700
O586        O  0.39916715  0.20012616  0.79982314    -0.79400
O587        O  0.42386186  0.12782061  0.70159815    -0.77600
O588        O  0.35268970  0.14412942  0.74919678    -1.13700
O589        O  0.36856792  0.06188254  0.71319391    -0.72900
C590        C  0.33394809  0.06257454  0.69058865     0.97800
C591        C  0.28928952  0.19754213  0.80715664     0.94200
Al592      Al  0.36521567  0.20369647  0.74966722     1.55600
O593        O  0.30469723  0.07167548  0.78316114    -0.77500
C594        C  0.43492014  0.16819396  0.69458060     0.98400
C595        C  0.29273913  0.20397223  0.69251863     0.93300
O596        O  0.27367885  0.17320602  0.71383290    -0.82800
O597        O  0.58730586  0.19891220  0.94856273    -0.82300
C598        C  0.65166305  0.05853337  0.55392974     0.97100
O599        O  0.61886238  0.05700308  0.52931492    -0.71400
O600        O  0.56966558  0.12527759  0.55198926    -0.75000
Al601      Al  0.59195335  0.10464082  0.99967004     1.49000
C602        C  0.55889925  0.16566092  0.55982900     0.92300
O603        O  0.65509968  0.21496897  0.54673030    -0.81200
O604        O  0.70868251  0.15778926  0.95038194    -0.74800
Al605      Al  0.62107763  0.20272984  0.49808442     1.90100
O606        O  0.71226286  0.17012500  0.53551713    -0.73900
O607        O  0.68149836  0.07369183  0.96227096    -0.73700
O608        O  0.68181654  0.08789441  0.54845407    -0.79400
O609        O  0.60982549  0.08020982  0.94812138    -0.77600
O610        O  0.63628547  0.14477465  0.99898555    -1.13700
O611        O  0.54936236  0.13979325  0.96936437    -0.72900
C612        C  0.55379988  0.17323560  0.94508417     0.97800
C613        C  0.69401063  0.20196867  0.55580021     0.94200
Al614      Al  0.69274916  0.12508089  0.99942638     1.55600
O615        O  0.57002712  0.19781711  0.53540855    -0.77500
C616        C  0.64774747  0.06401220  0.93968207     0.98400
C617        C  0.70036092  0.19842175  0.94109256     0.93300
O618        O  0.67104209  0.22036894  0.96111861    -0.82800
O619        O  0.89891577  0.29637248  0.69509063    -0.82300
C620        C  0.83308212  0.43395067  0.80215661     0.97100
O621        O  0.86520836  0.43638579  0.77662275    -0.71400
O622        O  0.92044109  0.37141195  0.79509735    -0.75000
Al623      Al  0.89530997  0.39133916  0.74476965     1.49000
C624        C  0.93396939  0.33170771  0.80191803     0.92300
O625        O  0.83419100  0.27951483  0.79700734    -0.81200
O626        O  0.78017956  0.33493518  0.69894646    -0.74800
Al627      Al  0.86593857  0.29141889  0.74650376     1.90100
O628        O  0.77483345  0.32056671  0.78423641    -0.73900
O629        O  0.80346350  0.41977804  0.71064092    -0.73700
O630        O  0.80337200  0.40385841  0.79757622    -0.79400
O631        O  0.87444368  0.41431836  0.69421973    -0.77600
O632        O  0.85192889  0.35009651  0.74664727    -1.13700
O633        O  0.93675649  0.35706004  0.71244982    -0.72900
C634        C  0.93095442  0.32341699  0.68883391     0.97800
C635        C  0.79436578  0.29023988  0.80539335     0.94200
Al636      Al  0.79506165  0.36818740  0.74781985     1.55600
O637        O  0.91877435  0.29830211  0.78123919    -0.77500
C638        C  0.83602983  0.42927013  0.68661631     0.98400
C639        C  0.78796750  0.29384678  0.69104068     0.93300
O640        O  0.81659749  0.27232478  0.71227883    -0.82800
C641        C  0.71848914  0.22492800  0.59035107    -0.06000
C642        C  0.70558688  0.26868000  0.60272574    -0.33400
C643        C  0.72764861  0.29141183  0.63528423     0.35900
C644        C  0.76349662  0.27046399  0.65655274    -0.06300
C645        C  0.77620122  0.22650234  0.64432284    -0.33300
C646        C  0.75428350  0.20391446  0.61147821     0.35800
H647        H  0.67833672  0.28566869  0.58686636     0.16100
O648        O  0.71387102  0.33425867  0.64570770    -0.60800
H649        H  0.80344140  0.20945420  0.66012723     0.16100
O650        O  0.76719047  0.16069405  0.60135858    -0.60900
H651        H  0.79227387  0.16450903  0.58123183     0.43100
H652        H  0.69135553  0.32987003  0.66830626     0.43100
C653        C  0.72483207  0.22099846  0.90621638    -0.06000
C654        C  0.70550816  0.25863329  0.88637218    -0.33400
C655        C  0.72747824  0.28127935  0.85362185     0.35900
C656        C  0.77007506  0.26673145  0.84004540    -0.06300
C657        C  0.78941420  0.22891703  0.85987733    -0.33300
C658        C  0.76715092  0.20600922  0.89246821     0.35800
H659        H  0.67282619  0.27047818  0.89602398     0.16100
O660        O  0.70654762  0.31734605  0.83494647    -0.60800
H661        H  0.82193878  0.21681902  0.85004471     0.16100
O662        O  0.78726321  0.16918702  0.91068118    -0.60900
H663        H  0.80527473  0.18172683  0.93414315     0.43100
H664        H  0.71475670  0.34405844  0.85224708     0.43100
C665        C  0.53185555  0.17424878  0.59738063    -0.06000
C666        C  0.49494793  0.20342546  0.59544859    -0.33400
C667        C  0.46390426  0.20439487  0.62851293     0.35900
C668        C  0.47028311  0.17625626  0.66369079    -0.06300
C669        C  0.50904431  0.15005576  0.66689257    -0.33300
C670        C  0.53991516  0.14914958  0.63422657     0.35800
H671        H  0.48859357  0.22299982  0.56724768     0.16100
O672        O  0.42616956  0.23036640  0.62493752    -0.60800
H673        H  0.51442817  0.12871614  0.69419482     0.16100
O674        O  0.57680972  0.12191164  0.63778470    -0.60900
H675        H  0.60157742  0.14256201  0.64590790     0.43100
H676        H  0.40448290  0.21131813  0.60923019     0.43100
C677        C  0.45928865  0.18031978  0.84420367    -0.06000
C678        C  0.44614336  0.16335015  0.88338883    -0.33400
C679        C  0.47574302  0.16387293  0.91731597     0.35900
C680        C  0.51972946  0.18065279  0.91204745    -0.06300
C681        C  0.53178385  0.20047981  0.87340009    -0.33300
C682        C  0.50183010  0.20015857  0.83946450     0.35800
H683        H  0.41325541  0.14832060  0.88731351     0.16100
O684        O  0.46166637  0.14667980  0.95521259    -0.60800
H685        H  0.56513820  0.21410824  0.86883934     0.16100
O686        O  0.51465752  0.21848351  0.80163812    -0.60900
H687        H  0.52534863  0.19253968  0.78465708     0.43100
H688        H  0.45361550  0.17353916  0.97228973     0.43100
C689        C  0.02265966  0.32076035  0.58580849    -0.06000
C690        C  0.03833323  0.31619645  0.62708261    -0.33400
C691        C  0.00841999  0.31541439  0.66091488     0.35900
C692        C  0.96208932  0.31717705  0.65357018    -0.06300
C693        C  0.94624316  0.31990294  0.61217771    -0.33300
C694        C  0.97630363  0.32279296  0.57838841     0.35800
H695        H  0.07395767  0.31548656  0.63321948     0.16100
O696        O  0.02476568  0.31482968  0.70118052    -0.60800
H697        H  0.91066583  0.32238088  0.60626152     0.16100
O698        O  0.96015666  0.32756178  0.53829059    -0.60900
H699        H  0.95660152  0.36065890  0.53416555     0.43100
H700        H  0.02865089  0.28233855  0.70810925     0.43100
C701        C  0.96965244  0.32574688  0.83304601    -0.06000
C702        C  0.00471023  0.35737218  0.83327946    -0.33400
C703        C  0.03652844  0.35706905  0.86513586     0.35900
C704        C  0.03294607  0.32551182  0.89836515    -0.06300
C705        C  0.99956767  0.29182347  0.89669378    -0.33300
C706        C  0.96793070  0.29177850  0.86411152     0.35800
H707        H  0.00695433  0.38308903  0.80895458     0.16100
O708        O  0.07022269  0.38880917  0.86416515    -0.60800
H709        H  0.99655301  0.26708835  0.92175790     0.16100
O710        O  0.93425573  0.26005401  0.86418515    -0.60900
H711        H  0.90841614  0.27519475  0.87770841     0.43100
H712        H  0.09530591  0.37388227  0.84925287     0.43100
C713        C  0.26788220  0.22748143  0.65854509    -0.06000
C714        C  0.23029998  0.20657467  0.64038008    -0.33400
C715        C  0.20693540  0.22737683  0.60746080     0.35900
C716        C  0.22077028  0.27019449  0.59211952    -0.06300
C717        C  0.25769699  0.29154471  0.61108925    -0.33300
C718        C  0.28135780  0.27051305  0.64359886     0.35800
H719        H  0.21929326  0.17352988  0.65128841     0.16100
O720        O  0.17093111  0.20516774  0.59038111    -0.60800
H721        H  0.26883537  0.32461958  0.60038315     0.16100
O722        O  0.31692159  0.29300316  0.66122604    -0.60900
H723        H  0.34240136  0.28751730  0.64197924     0.43100
H724        H  0.14459510  0.21644319  0.60615455     0.43100
C725        C  0.26596054  0.22011975  0.84269369    -0.04400
C726        C  0.28020525  0.26334649  0.85609715    -0.33400
C727        C  0.25800901  0.28620349  0.88856119     0.35900
C728        C  0.22084973  0.26589374  0.90853632    -0.06300
C729        C  0.20697651  0.22255743  0.89549938    -0.33300
C730        C  0.22915439  0.19967124  0.86315470     0.35800
H731        H  0.30857086  0.27977937  0.84118899     0.16100
O732        O  0.27253347  0.32865893  0.89988480    -0.60800
H733        H  0.17873688  0.20609634  0.91058359     0.16100
O734        O  0.21428744  0.15735704  0.85185258    -0.60900
H735        H  0.19251821  0.16265144  0.82889038     0.43100
H736        H  0.25308117  0.35002030  0.88430778     0.43100
C737        C  0.65296019  0.02614612  0.58963956    -0.06000
C738        C  0.69354001  0.00872508  0.60480292    -0.33400
C739        C  0.69399217  0.97692928  0.63794113     0.35900
C740        C  0.65353919  0.96348403  0.65743641    -0.06300
C741        C  0.61330259  0.98178089  0.64252506    -0.33300
C742        C  0.61268065  0.01204959  0.60880960     0.35800
H743        H  0.72482422  0.01904541  0.59040688     0.16100
O744        O  0.73412341  0.96017145  0.65158028    -0.60800
H745        H  0.58168327  0.97206757  0.65664726     0.16100
O746        O  0.57230449  0.02887128  0.59577351    -0.60900
H747        H  0.55992090  0.00552916  0.57652829     0.43100
H748        H  0.74073512  0.93434595  0.63264138     0.43100
C749        C  0.65154410  0.96605183  0.83965108    -0.06000
C750        C  0.61884081  0.99986125  0.84044792    -0.33400
C751        C  0.61888968  0.03309068  0.87152909     0.35900
C752        C  0.65137918  0.03235238  0.90367569    -0.06300
C753        C  0.68512141  0.99922683  0.90224954    -0.33300
C754        C  0.68530481  0.96610881  0.87043472     0.35800
H755        H  0.59294410  0.00056211  0.81665360     0.16100
O756        O  0.58646351  0.06585872  0.87039033    -0.60800
H757        H  0.71035254  0.99797385  0.92660899     0.16100
O758        O  0.71740105  0.93302857  0.87068568    -0.60900
H759        H  0.70457235  0.90798935  0.88776298     0.43100
H760        H  0.59938772  0.09081594  0.85325820     0.43100
C761        C  0.83073765  0.45923338  0.64984576    -0.06000
C762        C  0.79625762  0.49152146  0.64816114    -0.33400
C763        C  0.79558941  0.52422397  0.61601153     0.35900
C764        C  0.82945011  0.52424517  0.58526514    -0.06300
C765        C  0.86198624  0.49040909  0.58564730    -0.33300
C766        C  0.86292919  0.45816318  0.61737659     0.35800
H767        H  0.77120862  0.49278087  0.67276106     0.16100
O768        O  0.76327556  0.55709904  0.61611465    -0.60800
H769        H  0.88769473  0.48958584  0.56158350     0.16100
O770        O  0.89568410  0.42569553  0.61628860    -0.60900
H771        H  0.92308994  0.44094260  0.62683741     0.43100
H772        H  0.77641232  0.58282539  0.63195218     0.43100
C773        C  0.83191935  0.46663520  0.83760407    -0.06000
C774        C  0.79138196  0.47961388  0.85650357    -0.33400
C775        C  0.79087089  0.51157021  0.88940721     0.35900
C776        C  0.83133195  0.53007468  0.90445610    -0.06300
C777        C  0.87164395  0.51643291  0.88589402    -0.33300
C778        C  0.87223975  0.48545998  0.85283863     0.35800
H779        H  0.76009344  0.46532644  0.84552395     0.16100
O780        O  0.75097866  0.52285258  0.90780922    -0.60800
H781        H  0.90322390  0.52994714  0.89705888     0.16100
O782        O  0.91284406  0.47226481  0.83695105    -0.60900
H783        H  0.92188749  0.49673680  0.81722132     0.43100
H784        H  0.73973719  0.54893393  0.89128328     0.43100
C785        C  0.72687711  0.76973732  0.83948088    -0.06000
C786        C  0.76290513  0.79181079  0.85924312    -0.33400
C787        C  0.78614772  0.77106563  0.89231173     0.35900
C788        C  0.77305856  0.72772070  0.90678552    -0.06300
C789        C  0.73687222  0.70586507  0.88723937    -0.33300
C790        C  0.71419459  0.72613101  0.85377356     0.35800
H791        H  0.77321240  0.82534932  0.84906637     0.16100
O792        O  0.82040887  0.79429843  0.91128803    -0.60800
H793        H  0.72619473  0.67253195  0.89768772     0.16100
O794        O  0.67876195  0.70336727  0.83624003    -0.60900
H795        H  0.69202320  0.68415490  0.81392104     0.43100
H796        H  0.84703483  0.78860920  0.89347690     0.43100
C797        C  0.76536319  0.72310754  0.59077385    -0.06000
C798        C  0.72607778  0.70366841  0.60711244    -0.33400
C799        C  0.70203874  0.72509551  0.63918638     0.35900
C800        C  0.71757507  0.76655477  0.65615622    -0.06300
C801        C  0.75718236  0.78562488  0.64021125    -0.33300
C802        C  0.78103484  0.76433368  0.60801087     0.35800
H803        H  0.71356370  0.67182022  0.59477611     0.16100
O804        O  0.66429317  0.70430412  0.65464930    -0.60800
H805        H  0.76987278  0.81731024  0.65273183     0.16100
O806        O  0.81981003  0.78417934  0.59391029    -0.60900
H807        H  0.84386099  0.77082542  0.61138984     0.43100
H808        H  0.64136046  0.70789814  0.63242856     0.43100
C809        C  0.33510169  0.96436311  0.59015858    -0.06000
C810        C  0.29417767  0.97574541  0.60940363    -0.33400
C811        C  0.29237661  0.00904815  0.64117255     0.35900
C812        C  0.33201264  0.03058892  0.65471266    -0.06300
C813        C  0.37247947  0.01932715  0.63521376    -0.33300
C814        C  0.37435138  0.98701907  0.60340186     0.35800
H815        H  0.26361346  0.95886650  0.59983149     0.16100
O816        O  0.25228176  0.01845825  0.66011813    -0.60800
H817        H  0.40336706  0.03551579  0.64498434     0.16100
O818        O  0.41541343  0.97644104  0.58690753    -0.60900
H819        H  0.42147605  0.00013246  0.56540807     0.43100
H820        H  0.24024158  0.04488371  0.64456225     0.43100
C821        C  0.33604232  0.95334565  0.89766866    -0.06000
C822        C  0.29857308  0.98170144  0.89305052    -0.33400
C823        C  0.29724962  0.01457967  0.86104002     0.35900
C824        C  0.33398412  0.01969151  0.83372146    -0.06300
C825        C  0.36961752  0.98910937  0.83641924    -0.33300
C826        C  0.37047921  0.95568171  0.86734794     0.35800
H827        H  0.27113708  0.97971221  0.91525135     0.16100
O828        O  0.26095991  0.04265022  0.85792779    -0.60800
H829        H  0.39742413  0.99150432  0.81461393     0.16100
O830        O  0.40591360  0.92628286  0.86816947    -0.60900
H831        H  0.39479769  0.89815067  0.85454888     0.43100
H832        H  0.26803877  0.06900757  0.87609730     0.43100
C833        C  0.45570285  0.81003798  0.60029058    -0.06000
C834        C  0.49309789  0.78143656  0.59890809    -0.33400
C835        C  0.52410113  0.78173772  0.63200399     0.35900
C836        C  0.51742942  0.81088142  0.66644167    -0.06300
C837        C  0.47809829  0.83615669  0.66928907    -0.33300
C838        C  0.44700956  0.83535582  0.63686258     0.35800
H839        H  0.49989918  0.76149232  0.57105819     0.16100
O840        O  0.56205875  0.75601237  0.62906421    -0.60800
H841        H  0.47234349  0.85803863  0.69610552     0.16100
O842        O  0.40930602  0.86147344  0.64017077    -0.60900
H843        H  0.38548114  0.84036150  0.64978080     0.43100
H844        H  0.58522460  0.77661986  0.61731041     0.43100
C845        C  0.47129064  0.80894957  0.91380997    -0.06000
C846        C  0.51292598  0.83089754  0.91782879    -0.33400
C847        C  0.54374402  0.83062961  0.88486555     0.35900
C848        C  0.53329895  0.80801747  0.84739423    -0.06300
C849        C  0.49323685  0.78357185  0.84405206    -0.33300
C850        C  0.46229436  0.78360406  0.87715623     0.35800
H851        H  0.52095746  0.84990998  0.94597355     0.16100
O852        O  0.58332744  0.85394144  0.88889031    -0.60800
H853        H  0.48509294  0.76618049  0.81505282     0.16100
O854        O  0.42262604  0.76067628  0.87243149    -0.60900
H855        H  0.40147416  0.78325893  0.86084819     0.43100
H856        H  0.57651514  0.88555230  0.88041177     0.43100
C857        C  0.15721475  0.46736429  0.58713680    -0.06000
C858        C  0.19424221  0.46961610  0.61415610    -0.33400
C859        C  0.19416381  0.49945131  0.64865567     0.35900
C860        C  0.15679091  0.52754719  0.65593249    -0.06300
C861        C  0.12139414  0.52694937  0.62707395    -0.33300
C862        C  0.12148783  0.49763581  0.59301478     0.35800
H863        H  0.22222080  0.44690995  0.60964924     0.16100
O864        O  0.22999608  0.49985695  0.67548554    -0.60800
H865        H  0.09286892  0.54909029  0.63103631     0.16100
O866        O  0.08581329  0.49833303  0.56594679    -0.60900
H867        H  0.09393431  0.52097101  0.54407503     0.43100
H868        H  0.22387194  0.47530948  0.69605434     0.43100
C869        C  0.16734653  0.52633470  0.84463634    -0.06000
C870        C  0.16363770  0.54308641  0.88572891    -0.33400
C871        C  0.16176066  0.51325905  0.92005464     0.35900
C872        C  0.16652554  0.46628312  0.91353400    -0.06300
C873        C  0.17343405  0.44994487  0.87266227    -0.33300
C874        C  0.17263538  0.47953457  0.83821313     0.35800
H875        H  0.16041310  0.57916425  0.89099410     0.16100
O876        O  0.15409731  0.53013845  0.95957079    -0.60800
H877        H  0.17694479  0.41385406  0.86724050     0.16100
O878        O  0.17706285  0.46248239  0.79835243    -0.60900
H879        H  0.14625600  0.45449857  0.78944421     0.43100
H880        H  0.18419935  0.53560869  0.97165883     0.43100
C881        C  0.95895018  0.67430993  0.59654599    -0.06000
C882        C  0.99577449  0.70389055  0.59711974    -0.33400
C883        C  0.02705963  0.70202216  0.63006448     0.35900
C884        C  0.02144362  0.67030283  0.66313308    -0.06300
C885        C  0.98337342  0.64208587  0.66286292    -0.33300
C886        C  0.95252760  0.64386336  0.63001137     0.35800
H887        H  0.00131589  0.72703999  0.57112847     0.16100
O888        O  0.06351182  0.73038131  0.62884252    -0.60800
H889        H  0.97787189  0.61757860  0.68776201     0.16100
O890        O  0.91700117  0.61425409  0.63000011    -0.60900
H891        H  0.89144675  0.63184318  0.64121654     0.43100
H892        H  0.08719416  0.71289462  0.61437922     0.43100
C893        C  0.03324595  0.66637496  0.84941134    -0.06000
C894        C  0.00207598  0.70198030  0.85130344    -0.33400
C895        C  0.97138946  0.70435754  0.88478487     0.35900
C896        C  0.97243353  0.67111872  0.91656870    -0.06300
C897        C  0.00587431  0.63819145  0.91617076    -0.33300
C898        C  0.03590314  0.63555358  0.88315282     0.35800
H899        H  0.99990693  0.72631257  0.82585172     0.16100
O900        O  0.93923749  0.73738736  0.88486485    -0.60800
H901        H  0.00763897  0.61296598  0.94095699     0.16100
O902        O  0.06713016  0.60171769  0.88376847    -0.60900
H903        H  0.09338930  0.61549639  0.89784136     0.43100
H904        H  0.91291257  0.72349955  0.87087535     0.43100
C905        C  0.26919644  0.76301937  0.59201195    -0.06000
C906        C  0.27859505  0.71745905  0.60104846    -0.33400
C907        C  0.25644009  0.69457916  0.63351998     0.35900
C908        C  0.22371090  0.71713788  0.65769728    -0.06300
C909        C  0.21470016  0.76299569  0.64886659    -0.33300
C910        C  0.23728396  0.78595709  0.61657916     0.35800
H911        H  0.30317045  0.69924257  0.58264613     0.16100
O912        O  0.26687367  0.65001474  0.64087217    -0.60800
H913        H  0.19024520  0.78139399  0.66722922     0.16100
O914        O  0.22844568  0.83100632  0.60990110    -0.60900
H915        H  0.25159036  0.84767042  0.62608674     0.43100
H916        H  0.29333729  0.65089080  0.65965659     0.43100
C917        C  0.22159233  0.72185292  0.84062096    -0.06000
C918        C  0.20885458  0.76558619  0.85274210    -0.33400
C919        C  0.23102457  0.78816478  0.88515456     0.35900
C920        C  0.26670916  0.76690988  0.90643647    -0.06300
C921        C  0.27926951  0.72289639  0.89438306    -0.33300
C922        C  0.25709194  0.70040422  0.86179343     0.35800
H923        H  0.18176585  0.78266966  0.83671657     0.16100
O924        O  0.21766369  0.83123035  0.89529314    -0.60800
H925        H  0.30646182  0.70574712  0.91017552     0.16100
O926        O  0.27020339  0.65735397  0.85122984    -0.60900
H927        H  0.24979810  0.63683454  0.86694539     0.43100
H928        H  0.19333764  0.82714984  0.91620889     0.43100
loop_ 
_geom_bond_atom_site_label_1 
_geom_bond_atom_site_label_2 
_geom_bond_distance 
_geom_bond_site_symmetry_2 
_ccdc_geom_bond_type 
O1           C16   1.261       .  A
O1           Al9   1.906       .  S
C2           O12   1.256       .  A
C2            O3   1.258       .  A
C2          C405   1.466       .  S
O3           Al5   1.916       .  S
O4            C6   1.259       .  A
O4           Al5   1.870       .  S
Al5          O13   1.866       .  S
Al5          O15   1.916       .  S
Al5          O14   1.771       .  S
C6           O19   1.267       .  A
C6          C429   1.468       .  S
O7           C17   1.260       .  A
O7           Al9   1.885       .  S
O8           C21   1.258       .  A
O8          Al18   1.880       .  S
Al9          O22   1.914       .  S
Al9          O19   1.936       .  S
Al9          O14   1.786       .  S
O10          C17   1.266       .  A
O10         Al18   1.921       .  S
O11          C20   1.269       .  A
O11         Al18   1.944       .  S
O12         Al18   1.898       .  S
O13          C20   1.261       .  A
O14         Al18   1.779       .  S
O15          C16   1.263       .  A
C16         C420   1.489       .  S
C17         C453   1.479       .  S
C20         C396   1.479       .  S
C21          O22   1.263       .  A
C21         C444   1.481       .  S
O23          C38   1.257       .  A
O23        Al495   1.903       .  S
C24          O34   1.259       .  A
C24          O25   1.257       .  A
C24         C345   1.483       .  S
O25        Al491   1.903   1_554  S
O26          C28   1.263       .  A
O26        Al491   1.875   1_554  S
Al27         O35   1.868       .  S
Al27         O37   1.922       .  S
Al27        O489   1.899       .  S
Al27        O490   1.867       .  S
Al27         O36   1.773       .  S
C28          O41   1.268       .  A
C28         C369   1.469       .  S
O29          C39   1.258       .  A
O29         Al31   1.878   1_554  S
O30          C43   1.259       .  A
O30         Al40   1.895       .  S
Al31         O41   1.935   1_556  S
Al31        O487   1.899       .  S
Al31        O508   1.911       .  S
Al31        O500   1.784       .  S
O32          C39   1.262       .  A
O32        Al504   1.908   1_554  S
O33          C42   1.270       .  A
O33         Al40   1.940       .  S
O34        Al504   1.913   1_554  S
O35          C42   1.262       .  A
O36         Al40   1.784       .  S
O36        Al495   1.783       .  S
O37          C38   1.259       .  A
C38         C381   1.473       .  S
C39         C441   1.477       .  S
Al40        O496   1.921       .  S
Al40        O498   1.920       .  S
C42         C357   1.482       .  S
C43          O44   1.261       .  A
C43         C456   1.487       .  S
O44        Al495   1.905       .  S
O45          C60   1.259       .  A
O45        Al517   1.910       .  S
C46          O56   1.261       .  A
C46          O47   1.259       .  A
C46         C312   1.477       .  S
O47        Al513   1.893       .  S
O48          C50   1.254       .  A
O48        Al513   1.863       .  S
Al49         O57   1.858       .  S
Al49         O59   1.894       .  S
Al49        O511   1.894   1_554  S
Al49        O512   1.850   1_554  S
Al49         O58   1.782       .  S
C50          O63   1.261       .  A
C50         C432   1.463       .  S
O51          C61   1.260       .  A
O51         Al53   1.892       .  S
O52          C65   1.262       .  A
O52         Al62   1.898   1_554  S
Al53         O63   1.920       .  S
Al53        O509   1.910       .  S
Al53        O530   1.907       .  S
Al53        O522   1.796       .  S
O54          C61   1.263       .  A
O54        Al526   1.908       .  S
O55          C64   1.260       .  A
O55         Al62   1.921   1_554  S
O56        Al526   1.911       .  S
O57          C64   1.253       .  A
O58         Al62   1.797   1_554  S
O58        Al517   1.802       .  S
O59          C60   1.258       .  A
C60         C417   1.473       .  S
C61         C324   1.485       .  S
Al62        O518   1.911       .  S
Al62        O520   1.916       .  S
C64         C300   1.461       .  S
C65          O66   1.261       .  A
C65         C333   1.484       .  S
O66        Al517   1.900       .  S
O67          C82   1.259       .  A
O67         Al75   1.902       .  S
C68          O78   1.260       .  A
C68          O69   1.261       .  A
C68         C276   1.484       .  S
O69         Al71   1.904       .  S
O70          C72   1.256       .  A
O70         Al71   1.861       .  S
Al71         O79   1.861       .  S
Al71         O81   1.919       .  S
Al71         O80   1.777       .  S
C72          O85   1.266       .  A
C72         C372   1.464       .  S
O73          C83   1.259       .  A
O73         Al75   1.880       .  S
O74          C87   1.259       .  A
O74         Al84   1.890       .  S
Al75         O88   1.910       .  S
Al75         O85   1.938       .  S
Al75         O80   1.786       .  S
O76          C83   1.268       .  A
O76         Al84   1.928       .  S
O77          C86   1.268       .  A
O77         Al84   1.943       .  S
O78         Al84   1.911       .  S
O79          C86   1.257       .  A
O80         Al84   1.790       .  S
O81          C82   1.261       .  A
C82         C384   1.473       .  S
C83         C336   1.483       .  S
C86         C285   1.473       .  S
C87          O88   1.262       .  A
C87         C321   1.480       .  S
O89         C104   1.257       .  A
O89        Al561   1.901   1_554  S
C90         O100   1.258       .  A
C90          O91   1.260       .  A
C90         C408   1.472       .  S
O91        Al557   1.919       .  S
O92          C94   1.258       .  A
O92        Al557   1.859       .  S
Al93        O101   1.857   1_556  S
Al93        O103   1.922   1_556  S
Al93        O555   1.919       .  S
Al93        O556   1.866       .  S
Al93        O102   1.779       .  S
C94         O107   1.270       .  A
C94         C240   1.470       .  S
O95         C105   1.260       .  A
O95         Al97   1.888       .  S
O96         C109   1.260       .  A
O96        Al106   1.889       .  S
Al97        O107   1.946       .  S
Al97        O553   1.896       .  S
Al97        O574   1.922       .  S
Al97        O566   1.780       .  S
O98         C105   1.266       .  A
O98        Al570   1.924       .  S
O99         C108   1.272       .  A
O99        Al106   1.951       .  S
O100       Al570   1.905       .  S
O101        C108   1.258       .  A
O102       Al106   1.776   1_556  S
O102       Al561   1.779       .  S
O103        C104   1.260       .  A
C104        C225   1.470       .  S
C105        C264   1.485       .  S
Al106       O562   1.926   1_554  S
Al106       O564   1.900   1_554  S
C108        C393   1.483       .  S
C109        O110   1.263       .  A
C109        C252   1.486       .  S
O110       Al561   1.918   1_554  S
O111        C126   1.259       .  A
O111       Al119   1.907       .  S
C112        O122   1.261       .  A
C112        O113   1.260       .  A
C112        C213   1.478       .  S
O113       Al115   1.911       .  S
O114        C116   1.256       .  A
O114       Al115   1.851       .  S
Al115       O123   1.870       .  S
Al115       O125   1.899       .  S
Al115       O124   1.777       .  S
C116        O129   1.269       .  A
C116        C360   1.483       .  S
O117        C127   1.260       .  A
O117       Al119   1.902       .  S
O118        C131   1.262       .  A
O118       Al128   1.885       .  S
Al119       O132   1.936       .  S
Al119       O129   1.950       .  S
Al119       O124   1.793       .  S
O120        C127   1.261       .  A
O120       Al128   1.907       .  S
O121        C130   1.265       .  A
O121       Al128   1.940       .  S
O122       Al128   1.915       .  S
O123        C130   1.257       .  A
O124       Al128   1.783       .  S
O125        C126   1.259       .  A
C126        C348   1.481       .  S
C127        C261   1.487       .  S
C130        C204   1.469       .  S
C131        O132   1.270       .  A
C131        C249   1.491       .  S
O133        C148   1.259       .  A
O133       Al605   1.907       .  S
C134        O144   1.259       .  A
C134        O135   1.257       .  A
C134        C273   1.483       .  S
O135       Al601   1.901   1_554  S
O136        C138   1.260       .  A
O136       Al601   1.869   1_554  S
Al137       O145   1.872       .  S
Al137       O147   1.922       .  S
Al137       O599   1.903       .  S
Al137       O600   1.868       .  S
Al137       O146   1.777       .  S
C138        O151   1.270       .  A
C138        C201   1.475       .  S
O139        C149   1.259       .  A
O139       Al141   1.886   1_554  S
O140        C153   1.260       .  A
O140       Al150   1.896       .  S
Al141       O151   1.950   1_556  S
Al141       O597   1.911       .  S
Al141       O618   1.912       .  S
Al141       O610   1.786       .  S
O142        C149   1.265       .  A
O142       Al614   1.920   1_554  S
O143        C152   1.272       .  A
O143       Al150   1.943       .  S
O144       Al614   1.914   1_554  S
O145        C152   1.263       .  A
O146       Al150   1.783       .  S
O146       Al605   1.781       .  S
O147        C148   1.258       .  A
C148        C216   1.472       .  S
C149        C177   1.486       .  S
Al150       O606   1.920       .  S
Al150       O608   1.917       .  S
C152        C288   1.482       .  S
C153        O154   1.262       .  A
C153        C189   1.485       .  S
O154       Al605   1.907       .  S
O155        C170   1.259       .  A
O155       Al163   1.912       .  S
C156        O166   1.260       .  A
C156        O157   1.259       .  A
C156        C309   1.485       .  S
O157       Al159   1.905       .  S
O158        C160   1.261       .  A
O158       Al159   1.867       .  S
Al159       O167   1.869       .  S
Al159       O169   1.908       .  S
Al159       O168   1.778       .  S
C160        O173   1.268       .  A
C160        C237   1.462       .  S
O161        C171   1.261       .  A
O161       Al163   1.896       .  S
O162        C175   1.260       .  A
O162       Al172   1.889       .  S
Al163       O176   1.916       .  S
Al163       O173   1.935       .  S
Al163       O168   1.780       .  S
O164        C171   1.262       .  A
O164       Al172   1.909       .  S
O165        C174   1.268       .  A
O165       Al172   1.937       .  S
O166       Al172   1.913       .  S
O167        C174   1.260       .  A
O168       Al172   1.784       .  S
O169        C170   1.256       .  A
C170        C228   1.473       .  S
C171        C192   1.487       .  S
C174        C297   1.472       .  S
C175        O176   1.265       .  A
C175        C180   1.487       .  S
C177        C178   1.406       .  A
C177        C182   1.410       .  A
C178        C179   1.400       .  A
C178        H183   1.084       .  S
C179        C180   1.413       .  A
C179        O184   1.372       .  S
C180        C181   1.406       .  A
C181        C182   1.400       .  A
C181        H185   1.083       .  S
C182        O186   1.371       .  S
O184        H188   0.992       .  S
O186        H187   0.992       .  S
C189        C190   1.405       .  A
C189        C194   1.411       .  A
C190        C191   1.399       .  A
C190        H195   1.084       .  S
C191        C192   1.413       .  A
C191        O196   1.372       .  S
C192        C193   1.407       .  A
C193        C194   1.402       .  A
C193        H197   1.083       .  S
C194        O198   1.372       .  S
O196        H200   0.992       .  S
O198        H199   0.992       .  S
C201        C202   1.406       .  A
C201        C206   1.409       .  A
C202        C203   1.407       .  A
C202        H207   1.083       .  S
C203        C204   1.407       .  A
C203        O208   1.371       .  S
C204        C205   1.400       .  A
C205        C206   1.392       .  A
C205        H209   1.084       .  S
C206        O210   1.373       .  S
O208        H212   0.992       .  S
O210        H211   0.992       .  S
C213        C214   1.405       .  A
C213        C218   1.410       .  A
C214        C215   1.405       .  A
C214        H219   1.084       .  S
C215        C216   1.409       .  A
C215        O220   1.372       .  S
C216        C217   1.399       .  A
C217        C218   1.399       .  A
C217        H221   1.084       .  S
C218        O222   1.372       .  S
O220        H224   0.991       .  S
O222        H223   0.992       .  S
C225        C226   1.403       .  A
C225        C230   1.405   1_455  A
C226        C227   1.401       .  A
C226        H231   1.084       .  S
C227        C228   1.410   1_455  A
C227        O232   1.372       .  S
C228        C229   1.402       .  A
C229        C230   1.401       .  A
C229        H233   1.084       .  S
C230        O234   1.371       .  S
O232        H236   0.991       .  S
O234        H235   0.990       .  S
C237        C238   1.399   1_655  A
C237        C242   1.406       .  A
C238        C239   1.389       .  A
C238        H243   1.084       .  S
C239        C240   1.410       .  A
C239        O244   1.373       .  S
C240        C241   1.405   1_455  A
C241        C242   1.403       .  A
C241        H245   1.083       .  S
C242        O246   1.372       .  S
O244        H248   0.992       .  S
O246        H247   0.992       .  S
C249        C250   1.408       .  A
C249        C254   1.414       .  A
C250        C251   1.405       .  A
C250        H255   1.083       .  S
C251        C252   1.413       .  A
C251        O256   1.372       .  S
C252        C253   1.403       .  A
C253        C254   1.398       .  A
C253        H257   1.084       .  S
C254        O258   1.372       .  S
O256        H260   0.992       .  S
O258        H259   0.992       .  S
C261        C262   1.407       .  A
C261        C266   1.412       .  A
C262        C263   1.399       .  A
C262        H267   1.083       .  S
C263        C264   1.410       .  A
C263        O268   1.372       .  S
C264        C265   1.407       .  A
C265        C266   1.403       .  A
C265        H269   1.084       .  S
C266        O270   1.371       .  S
O268        H272   0.992       .  S
O270        H271   0.992       .  S
C273        C274   1.407       .  A
C273        C278   1.410       .  A
C274        C275   1.410   1_545  A
C274        H279   1.083       .  S
C275        C276   1.413       .  A
C275        O280   1.371       .  S
C276        C277   1.402       .  A
C277        C278   1.392   1_565  A
C277        H281   1.084       .  S
C278        O282   1.372       .  S
O280        H284   0.992       .  S
O282        H283   0.993       .  S
C285        C286   1.401       .  A
C285        C290   1.406       .  A
C286        C287   1.391   1_565  A
C286        H291   1.084       .  S
C287        C288   1.412       .  A
C287        O292   1.372       .  S
C288        C289   1.409       .  A
C289        C290   1.405   1_545  A
C289        H293   1.083       .  S
C290        O294   1.371       .  S
O292        H296   0.991       .  S
O294        H295   0.991       .  S
C297        C298   1.407       .  A
C297        C302   1.409       .  A
C298        C299   1.403       .  A
C298        H303   1.083       .  S
C299        C300   1.405       .  A
C299        O304   1.372       .  S
C300        C301   1.399       .  A
C301        C302   1.391       .  A
C301        H305   1.084       .  S
C302        O306   1.373       .  S
O304        H308   0.992       .  S
O306        H307   0.992       .  S
C309        C310   1.409       .  A
C309        C314   1.413       .  A
C310        C311   1.408       .  A
C310        H315   1.083       .  S
C311        C312   1.408       .  A
C311        O316   1.371       .  S
C312        C313   1.400       .  A
C313        C314   1.393       .  A
C313        H317   1.084       .  S
C314        O318   1.372       .  S
O316        H320   0.991       .  S
O318        H319   0.992       .  S
C321        C322   1.404       .  A
C321        C326   1.410       .  A
C322        C323   1.401       .  A
C322        H327   1.084       .  S
C323        C324   1.412       .  A
C323        O328   1.371       .  S
C324        C325   1.406       .  A
C325        C326   1.398       .  A
C325        H329   1.083       .  S
C326        O330   1.372       .  S
O328        H332   0.991       .  S
O330        H331   0.992       .  S
C333        C334   1.404       .  A
C333        C338   1.414       .  A
C334        C335   1.400       .  A
C334        H339   1.084       .  S
C335        C336   1.413       .  A
C335        O340   1.372       .  S
C336        C337   1.402       .  A
C337        C338   1.398       .  A
C337        H341   1.084       .  S
C338        O342   1.372       .  S
O340        H344   0.992       .  S
O342        H343   0.992       .  S
C345        C346   1.407       .  A
C345        C350   1.412       .  A
C346        C347   1.409   1_565  A
C346        H351   1.083       .  S
C347        C348   1.411       .  A
C347        O352   1.371       .  S
C348        C349   1.402       .  A
C349        C350   1.392   1_545  A
C349        H353   1.084       .  S
C350        O354   1.372       .  S
O352        H356   0.992       .  S
O354        H355   0.993       .  S
C357        C358   1.409       .  A
C357        C362   1.411       .  A
C358        C359   1.407   1_565  A
C358        H363   1.083       .  S
C359        C360   1.410       .  A
C359        O364   1.371       .  S
C360        C361   1.406       .  A
C361        C362   1.388   1_545  A
C361        H365   1.084       .  S
C362        O366   1.373       .  S
O364        H368   0.992       .  S
O366        H367   0.992       .  S
C369        C370   1.407       .  A
C369        C374   1.407       .  A
C370        C371   1.404       .  A
C370        H375   1.083       .  S
C371        C372   1.406       .  A
C371        O376   1.372       .  S
C372        C373   1.401       .  A
C373        C374   1.390       .  A
C373        H377   1.084       .  S
C374        O378   1.373       .  S
O376        H380   0.992       .  S
O378        H379   0.992       .  S
C381        C382   1.403       .  A
C381        C386   1.408       .  A
C382        C383   1.402       .  A
C382        H387   1.084       .  S
C383        C384   1.407       .  A
C383        O388   1.372       .  S
C384        C385   1.403       .  A
C385        C386   1.401       .  A
C385        H389   1.084       .  S
C386        O390   1.372       .  S
O388        H392   0.992       .  S
O390        H391   0.992       .  S
C393        C394   1.407       .  A
C393        C398   1.414       .  A
C394        C395   1.406       .  A
C394        H399   1.083       .  S
C395        C396   1.410       .  A
C395        O400   1.371       .  S
C396        C397   1.402       .  A
C397        C398   1.389       .  A
C397        H401   1.084       .  S
C398        O402   1.373       .  S
O400        H404   0.992       .  S
O402        H403   0.993       .  S
C405        C406   1.399       .  A
C405        C410   1.407       .  A
C406        C407   1.399       .  A
C406        H411   1.083       .  S
C407        C408   1.409       .  A
C407        O412   1.371       .  S
C408        C409   1.403       .  A
C409        C410   1.402       .  A
C409        H413   1.084       .  S
C410        O414   1.372       .  S
O412        H416   0.992       .  S
O414        H415   0.992       .  S
C417        C418   1.402       .  A
C417        C422   1.406       .  A
C418        C419   1.408   1_655  A
C418        H423   1.083       .  S
C419        C420   1.415       .  A
C419        O424   1.372       .  S
C420        C421   1.407   1_455  A
C421        C422   1.394       .  A
C421        H425   1.083       .  S
C422        O426   1.373       .  S
O424        H428   0.991       .  S
O426        H427   0.992       .  S
C429        C430   1.405   1_455  A
C429        C434   1.408       .  A
C430        C431   1.403       .  A
C430        H435   1.084       .  S
C431        C432   1.406       .  A
C431        O436   1.371       .  S
C432        C433   1.399   1_655  A
C433        C434   1.390       .  A
C433        H437   1.084       .  S
C434        O438   1.372       .  S
O436        H440   0.992       .  S
O438        H439   0.992       .  S
C441        C442   1.403       .  A
C441        C446   1.410       .  A
C442        C443   1.396       .  A
C442        H447   1.084       .  S
C443        C444   1.413       .  A
C443        O448   1.372       .  S
C444        C445   1.406       .  A
C445        C446   1.398       .  A
C445        H449   1.083       .  S
C446        O450   1.372       .  S
O448        H452   0.993       .  S
O450        H451   0.992       .  S
C453        C454   1.404       .  A
C453        C458   1.409       .  A
C454        C455   1.401       .  A
C454        H459   1.084       .  S
C455        C456   1.413       .  A
C455        O460   1.371       .  S
C456        C457   1.408       .  A
C457        C458   1.399       .  A
C457        H461   1.083       .  S
C458        O462   1.372       .  S
O460        H464   0.992       .  S
O462        H463   0.992       .  S
O465        C480   1.260       .  A
O465       Al473   1.906       .  S
C466        O476   1.256       .  A
C466        O467   1.261       .  A
C466        C869   1.471       .  S
O467       Al469   1.923       .  S
O468        C470   1.259       .  A
O468       Al469   1.863       .  S
Al469       O477   1.864       .  S
Al469       O479   1.916       .  S
Al469       O478   1.774       .  S
C470        O483   1.266       .  A
C470        C893   1.474       .  S
O471        C481   1.259       .  A
O471       Al473   1.885       .  S
O472        C485   1.260       .  A
O472       Al482   1.885       .  S
Al473       O486   1.918       .  S
Al473       O483   1.937       .  S
Al473       O478   1.786       .  S
O474        C481   1.261       .  A
O474       Al482   1.905       .  S
O475        C484   1.266       .  A
O475       Al482   1.938       .  S
O476       Al482   1.900       .  S
O477        C484   1.259       .  A
O478       Al482   1.785       .  S
O479        C480   1.263       .  A
C480        C884   1.490       .  S
C481        C917   1.473       .  S
C484        C860   1.479       .  S
C485        O486   1.265       .  A
C485        C908   1.486       .  S
O487        C502   1.257       .  A
C488        O498   1.260       .  A
C488        O489   1.257       .  A
C488        C809   1.489       .  S
O490        C492   1.260       .  A
Al491       O499   1.878       .  S
Al491       O501   1.904       .  S
Al491       O500   1.772       .  S
C492        O505   1.269       .  A
C492        C833   1.468       .  S
O493        C503   1.260       .  A
O493       Al495   1.880       .  S
O494        C507   1.258       .  A
O494       Al504   1.877       .  S
Al495       O505   1.945       .  S
O496        C503   1.266       .  A
O497        C506   1.270       .  A
O497       Al504   1.940       .  S
O499        C506   1.263       .  A
O500       Al504   1.782       .  S
O501        C502   1.258       .  A
C502        C845   1.478       .  S
C503        C905   1.478       .  S
C506        C821   1.483       .  S
C507        O508   1.263       .  A
C507        C920   1.481       .  S
O509        C524   1.260       .  A
C510        O520   1.262       .  A
C510        O511   1.259       .  A
C510        C776   1.483       .  S
O512        C514   1.253       .  A
Al513       O521   1.857       .  S
Al513       O523   1.898       .  S
Al513       O522   1.783       .  S
C514        O527   1.260       .  A
C514        C896   1.464       .  S
O515        C525   1.259       .  A
O515       Al517   1.894   1_556  S
O516        C529   1.260       .  A
O516       Al526   1.892       .  S
Al517       O527   1.921   1_554  S
O518        C525   1.263       .  A
O519        C528   1.260       .  A
O519       Al526   1.917       .  S
O521        C528   1.254       .  A
O522       Al526   1.801       .  S
O523        C524   1.257       .  A
C524        C881   1.471       .  S
C525        C788   1.484       .  S
C528        C764   1.463       .  S
C529        O530   1.261       .  A
C529        C797   1.483       .  S
O531        C546   1.258       .  A
O531       Al539   1.891       .  S
C532        O542   1.261       .  A
C532        O533   1.262       .  A
C532        C740   1.489       .  S
O533       Al535   1.905       .  S
O534        C536   1.256       .  A
O534       Al535   1.872       .  S
Al535       O543   1.871       .  S
Al535       O545   1.913       .  S
Al535       O544   1.780       .  S
C536        O549   1.261       .  A
C536        C836   1.463       .  S
O537        C547   1.259       .  A
O537       Al539   1.877       .  S
O538        C551   1.259       .  A
O538       Al548   1.899       .  S
Al539       O552   1.908       .  S
Al539       O549   1.923       .  S
Al539       O544   1.791       .  S
O540        C547   1.269       .  A
O540       Al548   1.932       .  S
O541        C550   1.265       .  A
O541       Al548   1.933       .  S
O542       Al548   1.911       .  S
O543        C550   1.257       .  A
O544       Al548   1.788       .  S
O545        C546   1.262       .  A
C546        C848   1.459       .  S
C547        C800   1.483       .  S
C550        C749   1.474       .  S
C551        O552   1.260       .  A
C551        C785   1.486       .  S
O553        C568   1.257       .  A
C554        O564   1.257       .  A
C554        O555   1.259       .  A
C554        C872   1.472       .  S
O556        C558   1.259       .  A
Al557       O565   1.861       .  S
Al557       O567   1.924       .  S
Al557       O566   1.775       .  S
C558        O571   1.271       .  A
C558        C704   1.476       .  S
O559        C569   1.261       .  A
O559       Al561   1.887       .  S
O560        C573   1.260       .  A
O560       Al570   1.888       .  S
Al561       O571   1.951       .  S
O562        C569   1.267       .  A
O563        C572   1.271       .  A
O563       Al570   1.950       .  S
O565        C572   1.259       .  A
O566       Al570   1.777       .  S
O567        C568   1.261       .  A
C568        C689   1.471       .  S
C569        C728   1.484       .  S
C572        C857   1.473       .  S
C573        O574   1.265       .  A
C573        C716   1.488       .  S
O575        C590   1.263       .  A
O575       Al583   1.917       .  S
C576        O586   1.257       .  A
C576        O577   1.260       .  A
C576        C677   1.466       .  S
O577       Al579   1.911       .  S
O578        C580   1.255       .  A
O578       Al579   1.867       .  S
Al579       O587   1.861       .  S
Al579       O589   1.900       .  S
Al579       O588   1.781       .  S
C580        O593   1.263       .  A
C580        C824   1.474       .  S
O581        C591   1.262       .  A
O581       Al583   1.900       .  S
O582        C595   1.259       .  A
O582       Al592   1.887       .  S
Al583       O596   1.925       .  S
Al583       O593   1.931       .  S
Al583       O588   1.795       .  S
O584        C591   1.263       .  A
O584       Al592   1.910       .  S
O585        C594   1.261       .  A
O585       Al592   1.921       .  S
O586       Al592   1.896       .  S
O587        C594   1.254       .  A
O588       Al592   1.794       .  S
O589        C590   1.262       .  A
C590        C812   1.483       .  S
C591        C725   1.487       .  S
C594        C668   1.461       .  S
C595        O596   1.265       .  A
C595        C713   1.485       .  S
O597        C612   1.259       .  A
C598        O608   1.259       .  A
C598        O599   1.257       .  A
C598        C737   1.484       .  S
O600        C602   1.260       .  A
Al601       O609   1.870       .  S
Al601       O611   1.908       .  S
Al601       O610   1.774       .  S
C602        O615   1.268       .  A
C602        C665   1.465       .  S
O603        C613   1.261       .  A
O603       Al605   1.888       .  S
O604        C617   1.260       .  A
O604       Al614   1.892       .  S
Al605       O615   1.938       .  S
O606        C613   1.265       .  A
O607        C616   1.272       .  A
O607       Al614   1.951       .  S
O609        C616   1.261       .  A
O610       Al614   1.788       .  S
O611        C612   1.258       .  A
C612        C680   1.482       .  S
C613        C641   1.484       .  S
C616        C752   1.483       .  S
C617        O618   1.264       .  A
C617        C653   1.484       .  S
O619        C634   1.259       .  A
O619       Al627   1.914       .  S
C620        O630   1.262       .  A
C620        O621   1.259       .  A
C620        C773   1.485       .  S
O621       Al623   1.901       .  S
O622        C624   1.259       .  A
O622       Al623   1.865       .  S
Al623       O631   1.854       .  S
Al623       O633   1.904       .  S
Al623       O632   1.775       .  S
C624        O637   1.268       .  A
C624        C701   1.468       .  S
O625        C635   1.262       .  A
O625       Al627   1.897       .  S
O626        C639   1.260       .  A
O626       Al636   1.892       .  S
Al627       O640   1.918       .  S
Al627       O637   1.940       .  S
Al627       O632   1.782       .  S
O628        C635   1.264       .  A
O628       Al636   1.915       .  S
O629        C638   1.267       .  A
O629       Al636   1.941       .  S
O630       Al636   1.918       .  S
O631        C638   1.256       .  A
O632       Al636   1.785       .  S
O633        C634   1.257       .  A
C634        C692   1.469       .  S
C635        C656   1.488       .  S
C638        C761   1.474       .  S
C639        O640   1.264       .  A
C639        C644   1.488       .  S
C641        C642   1.405       .  A
C641        C646   1.410       .  A
C642        C643   1.399       .  A
C642        H647   1.084       .  S
C643        C644   1.413       .  A
C643        O648   1.372       .  S
C644        C645   1.408       .  A
C645        C646   1.402       .  A
C645        H649   1.083       .  S
C646        O650   1.372       .  S
O648        H652   0.992       .  S
O650        H651   0.991       .  S
C653        C654   1.403       .  A
C653        C658   1.412       .  A
C654        C655   1.398       .  A
C654        H659   1.084       .  S
C655        C656   1.413       .  A
C655        O660   1.372       .  S
C656        C657   1.407       .  A
C657        C658   1.402       .  A
C657        H661   1.083       .  S
C658        O662   1.372       .  S
O660        H664   0.992       .  S
O662        H663   0.992       .  S
C665        C666   1.404       .  A
C665        C670   1.407       .  A
C666        C667   1.402       .  A
C666        H671   1.084       .  S
C667        C668   1.406       .  A
C667        O672   1.372       .  S
C668        C669   1.400       .  A
C669        C670   1.389       .  A
C669        H673   1.084       .  S
C670        O674   1.372       .  S
O672        H676   0.992       .  S
O674        H675   0.992       .  S
C677        C678   1.398       .  A
C677        C682   1.406       .  A
C678        C679   1.397       .  A
C678        H683   1.084       .  S
C679        C680   1.413       .  A
C679        O684   1.372       .  S
C680        C681   1.406       .  A
C681        C682   1.404       .  A
C681        H685   1.083       .  S
C682        O686   1.372       .  S
O684        H688   0.991       .  S
O686        H687   0.991       .  S
C689        C690   1.401       .  A
C689        C694   1.408   1_455  A
C690        C691   1.399       .  A
C690        H695   1.084       .  S
C691        C692   1.407   1_455  A
C691        O696   1.372       .  S
C692        C693   1.403       .  A
C693        C694   1.403       .  A
C693        H697   1.084       .  S
C694        O698   1.372       .  S
O696        H700   0.990       .  S
O698        H699   0.991       .  S
C701        C702   1.400   1_655  A
C701        C706   1.407       .  A
C702        C703   1.391       .  A
C702        H707   1.084       .  S
C703        C704   1.411       .  A
C703        O708   1.373       .  S
C704        C705   1.406   1_455  A
C705        C706   1.405       .  A
C705        H709   1.083       .  S
C706        O710   1.372       .  S
O708        H712   0.992       .  S
O710        H711   0.992       .  S
C713        C714   1.405       .  A
C713        C718   1.411       .  A
C714        C715   1.402       .  A
C714        H719   1.084       .  S
C715        C716   1.413       .  A
C715        O720   1.371       .  S
C716        C717   1.406       .  A
C717        C718   1.400       .  A
C717        H721   1.083       .  S
C718        O722   1.372       .  S
O720        H724   0.992       .  S
O722        H723   0.991       .  S
C725        C726   1.409       .  A
C725        C730   1.411       .  A
C726        C727   1.402       .  A
C726        H731   1.084       .  S
C727        C728   1.410       .  A
C727        O732   1.372       .  S
C728        C729   1.405       .  A
C729        C730   1.399       .  A
C729        H733   1.083       .  S
C730        O734   1.371       .  S
O732        H736   0.992       .  S
O734        H735   0.992       .  S
C737        C738   1.406       .  A
C737        C742   1.410       .  A
C738        C739   1.410   1_545  A
C738        H743   1.083       .  S
C739        C740   1.414       .  A
C739        O744   1.371       .  S
C740        C741   1.404       .  A
C741        C742   1.395   1_565  A
C741        H745   1.084       .  S
C742        O746   1.372       .  S
O744        H748   0.992       .  S
O746        H747   0.993       .  S
C749        C750   1.400       .  A
C749        C754   1.408       .  A
C750        C751   1.393   1_565  A
C750        H755   1.084   1_565  S
C751        C752   1.412       .  A
C751        O756   1.373       .  S
C752        C753   1.408   1_545  A
C753        C754   1.407       .  A
C753        H757   1.083       .  S
C754        O758   1.372       .  S
O756        H760   0.992       .  S
O758        H759   0.992       .  S
C761        C762   1.408       .  A
C761        C766   1.411       .  A
C762        C763   1.405       .  A
C762        H767   1.083       .  S
C763        C764   1.407       .  A
C763        O768   1.372       .  S
C764        C765   1.397       .  A
C765        C766   1.386       .  A
C765        H769   1.085       .  S
C766        O770   1.373       .  S
O768        H772   0.991       .  S
O770        H771   0.992       .  S
C773        C774   1.407       .  A
C773        C778   1.412       .  A
C774        C775   1.409       .  A
C774        H779   1.083       .  S
C775        C776   1.410       .  A
C775        O780   1.371       .  S
C776        C777   1.403       .  A
C777        C778   1.394       .  A
C777        H781   1.084       .  S
C778        O782   1.373       .  S
O780        H784   0.991       .  S
O782        H783   0.992       .  S
C785        C786   1.406       .  A
C785        C790   1.413       .  A
C786        C787   1.403       .  A
C786        H791   1.083       .  S
C787        C788   1.411       .  A
C787        O792   1.371       .  S
C788        C789   1.404       .  A
C789        C790   1.398       .  A
C789        H793   1.084       .  S
C790        O794   1.372       .  S
O792        H796   0.992       .  S
O794        H795   0.992       .  S
C797        C798   1.404       .  A
C797        C802   1.413       .  A
C798        C799   1.400       .  A
C798        H803   1.084       .  S
C799        C800   1.414       .  A
C799        O804   1.373       .  S
C800        C801   1.403       .  A
C801        C802   1.398       .  A
C801        H805   1.083       .  S
C802        O806   1.371       .  S
O804        H808   0.992       .  S
O806        H807   0.992       .  S
C809        C810   1.410       .  A
C809        C814   1.413       .  A
C810        C811   1.411   1_565  A
C810        H815   1.083       .  S
C811        C812   1.411       .  A
C811        O816   1.371       .  S
C812        C813   1.401       .  A
C813        C814   1.392   1_545  A
C813        H817   1.084       .  S
C814        O818   1.372       .  S
O816        H820   0.992       .  S
O818        H819   0.993   1_565  S
C821        C822   1.409       .  A
C821        C826   1.411       .  A
C822        C823   1.406   1_565  A
C822        H827   1.083       .  S
C823        C824   1.407       .  A
C823        O828   1.372       .  S
C824        C825   1.402   1_545  A
C825        C826   1.392       .  A
C825        H829   1.084       .  S
C826        O830   1.372       .  S
O828        H832   0.991       .  S
O830        H831   0.993       .  S
C833        C834   1.404       .  A
C833        C838   1.408       .  A
C834        C835   1.404       .  A
C834        H839   1.084       .  S
C835        C836   1.408       .  A
C835        O840   1.371       .  S
C836        C837   1.398       .  A
C837        C838   1.390       .  A
C837        H841   1.084       .  S
C838        O842   1.372       .  S
O840        H844   0.992       .  S
O842        H843   0.992       .  S
C845        C846   1.407       .  A
C845        C850   1.411       .  A
C846        C847   1.395       .  A
C846        H851   1.084       .  S
C847        C848   1.402       .  A
C847        O852   1.373       .  S
C848        C849   1.400       .  A
C849        C850   1.401       .  A
C849        H853   1.084       .  S
C850        O854   1.372       .  S
O852        H856   0.992       .  S
O854        H855   0.992       .  S
C857        C858   1.404       .  A
C857        C862   1.408       .  A
C858        C859   1.407       .  A
C858        H863   1.083       .  S
C859        C860   1.413       .  A
C859        O864   1.371       .  S
C860        C861   1.403       .  A
C861        C862   1.387       .  A
C861        H865   1.084       .  S
C862        O866   1.373       .  S
O864        H868   0.991       .  S
O866        H867   0.993       .  S
C869        C870   1.402       .  A
C869        C874   1.405       .  A
C870        C871   1.402       .  A
C870        H875   1.082       .  S
C871        C872   1.409       .  A
C871        O876   1.372       .  S
C872        C873   1.402       .  A
C873        C874   1.400       .  A
C873        H877   1.084       .  S
C874        O878   1.371       .  S
O876        H880   0.992       .  S
O878        H879   0.992       .  S
C881        C882   1.402       .  A
C881        C886   1.404       .  A
C882        C883   1.407   1_655  A
C882        H887   1.084   1_655  S
C883        C884   1.416       .  A
C883        O888   1.372       .  S
C884        C885   1.407   1_455  A
C885        C886   1.396       .  A
C885        H889   1.083       .  S
C886        O890   1.372       .  S
O888        H892   0.991       .  S
O890        H891   0.992       .  S
C893        C894   1.408       .  A
C893        C898   1.408       .  A
C894        C895   1.407   1_455  A
C894        H899   1.083   1_455  S
C895        C896   1.408       .  A
C895        O900   1.372       .  S
C896        C897   1.397   1_655  A
C897        C898   1.383       .  A
C897        H901   1.085       .  S
C898        O902   1.370       .  S
O900        H904   0.992       .  S
O902        H903   0.991       .  S
C905        C906   1.403       .  A
C905        C910   1.409       .  A
C906        C907   1.398       .  A
C906        H911   1.084       .  S
C907        C908   1.413       .  A
C907        O912   1.372       .  S
C908        C909   1.408       .  A
C909        C910   1.401       .  A
C909        H913   1.083       .  S
C910        O914   1.372       .  S
O912        H916   0.993       .  S
O914        H915   0.992       .  S
C917        C918   1.401       .  A
C917        C922   1.410       .  A
C918        C919   1.395       .  A
C918        H923   1.084       .  S
C919        C920   1.413       .  A
C919        O924   1.372       .  S
C920        C921   1.406       .  A
C921        C922   1.398       .  A
C921        H925   1.083       .  S
C922        O926   1.372       .  S
O924        H928   0.992       .  S
O926        H927   0.992       .  S
