geometry optimzed in LAMMPS
_audit_creation_date              2020-11-30 
_audit_creation_method            'lammps2cif' 
_symmetry_space_group_name_H-M    'P1' 
_symmetry_Int_Tables_number       1 
_symmetry_cell_setting            triclinic 
loop_ 
_symmetry_equiv_pos_as_xyz 
  x,y,z 
_cell_length_a                    31.81914625 
_cell_length_b                    31.83633528141826 
_cell_length_c                    45.27868633944707 
_cell_angle_alpha                 90.21734826339392 
_cell_angle_beta                  90.1722287770729 
_cell_angle_gamma                 120.45068437696608 
loop_ 
_atom_site_label 
_atom_site_type_symbol 
_atom_site_fract_x 
_atom_site_fract_y 
_atom_site_fract_z 
_atom_site_charge 
O1          O  0.26624036  0.76002586  0.07490990    -0.82300
C2          C  0.19326075  0.81654317  0.17282682     0.97100
O3          O  0.23266512  0.81688700  0.17007158    -0.71400
O4          O  0.23321990  0.73678328  0.15651284    -0.75000
Al5        Al  0.26349602  0.80118212  0.14050182     1.49000
C6          C  0.21657897  0.69736241  0.14222845     0.92300
O7          O  0.13195815  0.70327960  0.09719287    -0.81200
O8          O  0.20492831  0.83593288  0.06800998    -0.74800
Al9        Al  0.20028144  0.73524207  0.08782414     1.90100
O10         O  0.12620141  0.76870770  0.09914290    -0.73800
O11         O  0.24210794  0.88045345  0.11909580    -0.73700
O12         O  0.16654946  0.81056602  0.15048185    -0.79300
O13         O  0.30226568  0.86850727  0.12924751    -0.77600
O14         O  0.21710938  0.78567078  0.11265651    -1.13700
O15         O  0.30393717  0.78892055  0.11697975    -0.72900
C16         C  0.30426355  0.77640707  0.09079963     0.97800
C17         C  0.10635174  0.72329452  0.09663105     0.94200
Al18       Al  0.18766338  0.82073331  0.10944146     1.55600
O19         O  0.20579552  0.69490955  0.11541730    -0.77500
C20         C  0.28613404  0.89701607  0.12548306     0.98400
C21         C  0.19743299  0.80516942  0.04778252     0.93300
O22         O  0.19060181  0.76385730  0.05411689    -0.82800
O23         O  0.26018476  0.74449486  0.31919751    -0.82300
C24         C  0.21517451  0.80837543  0.42177165     0.97100
O25         O  0.23532742  0.78538991  0.41289624    -0.71400
O26         O  0.25627569  0.73040119  0.37928340    -0.75000
Al27       Al  0.26907483  0.79701013  0.37709384     1.49000
C28         C  0.21961087  0.68960470  0.37198805     0.92300
O29         O  0.12848154  0.71388747  0.33145297    -0.81200
O30         O  0.16720221  0.81163017  0.31857135    -0.74800
Al31       Al  0.19652864  0.73500512  0.32828847     1.90100
O32         O  0.12596041  0.75605969  0.36902367    -0.73800
O33         O  0.24061210  0.87420048  0.35195071    -0.73700
O34         O  0.19689368  0.82444935  0.40312643    -0.79300
O35         O  0.29336705  0.86658142  0.37900959    -0.77600
O36         O  0.21687739  0.78201831  0.35536593    -1.13700
O37         O  0.30885787  0.81072789  0.34390298    -0.72900
C38         C  0.30282923  0.77813545  0.32579528     0.97800
C39         C  0.10441682  0.72128374  0.35085683     0.94200
Al40       Al  0.18511735  0.81390844  0.36035426     1.55600
O41         O  0.18575708  0.68772047  0.35654352    -0.77500
C42         C  0.28145616  0.89317354  0.36470028     0.98400
C43         C  0.18280622  0.80100552  0.29556980     0.93300
O44         O  0.20512586  0.77782651  0.29743152    -0.82800
O45         O  0.24650242  0.51464622  0.15851668    -0.82300
C46         C  0.18669236  0.37973656  0.24836363     0.97100
O47         O  0.20712888  0.42497306  0.24443760    -0.71400
O48         O  0.25955767  0.50965236  0.21832533    -0.75000
Al49       Al  0.19465174  0.45442769  0.21240175     1.49000
C50         C  0.30137738  0.51883105  0.20998196     0.92300
O51         O  0.28381595  0.41743735  0.15637766    -0.81200
O52         O  0.18735608  0.35689997  0.14120153    -0.74800
Al53       Al  0.25918435  0.46136393  0.16024985     1.90100
O54         O  0.24332573  0.36244778  0.19015540    -0.73800
O55         O  0.12035541  0.35235441  0.17865586    -0.73700
O56         O  0.17251717  0.35052304  0.22659799    -0.79300
O57         O  0.12703808  0.40585579  0.21188965    -0.77600
O58         O  0.21218241  0.42538566  0.18571772    -1.13700
O59         O  0.17915729  0.48710664  0.18366216    -0.72900
C60         C  0.21113971  0.51889285  0.16730640     0.97800
C61         C  0.27877903  0.38301888  0.17264218     0.94200
Al62       Al  0.18335127  0.36079820  0.18424923     1.55600
O63         O  0.30546053  0.49273154  0.19052143    -0.77500
C64         C  0.10099776  0.36891715  0.19590029     0.98400
C65         C  0.19709670  0.38845607  0.12123417     0.93300
O66         O  0.21723716  0.43314040  0.12759776    -0.82800
O67         O  0.23725373  0.49174091  0.38721351    -0.82300
C68         C  0.19507962  0.38677329  0.49572675     0.97100
O69         O  0.19276076  0.42406726  0.48961848    -0.71400
O70         O  0.27000575  0.50261677  0.46936940    -0.75000
Al71       Al  0.20373094  0.46318874  0.45620079     1.49000
C72         C  0.30799780  0.52401085  0.45378274     0.92300
O73         O  0.29996390  0.42612380  0.41853934    -0.81200
O74         O  0.16309249  0.35406007  0.39350120    -0.74800
Al75       Al  0.26498406  0.45647858  0.40466617     1.90100
O76         O  0.23686986  0.35340574  0.42476386    -0.73800
O77         O  0.12350947  0.35589595  0.44482650    -0.73700
O78         O  0.20022875  0.36215430  0.47549437    -0.79300
O79         O  0.13494145  0.42942569  0.44718394    -0.77600
O80         O  0.21743319  0.42740169  0.43174769    -1.13700
O81         O  0.21156119  0.50931370  0.42784227    -0.72900
C82         C  0.22211420  0.51614851  0.40091423     0.97800
C83         C  0.28223168  0.38094738  0.42189598     0.94200
Al84       Al  0.18396485  0.36226490  0.43427895     1.55600
O85         O  0.30733977  0.51075120  0.42763023    -0.77500
C86         C  0.10678419  0.38384599  0.44842789     0.98400
C87         C  0.19144995  0.37256708  0.37174521     0.93300
O88         O  0.23360540  0.40862590  0.37513005    -0.82800
O89         O  0.50422163  0.77162521  0.06314067    -0.82300
C90         C  0.62057693  0.81217685  0.45862097     0.97100
O91         O  0.58527000  0.81849634  0.46320564    -0.71400
O92         O  0.50637423  0.73551421  0.47926053    -0.75000
Al93       Al  0.54034232  0.80125381  0.49450342     1.49000
C94         C  0.48235318  0.69795119  0.49507719     0.92300
O95         O  0.57596421  0.71113221  0.03787506    -0.81200
O96         O  0.64488926  0.84663174  0.06131574    -0.74800
Al97       Al  0.54282227  0.74521248  0.04850875     1.90100
O98         O  0.64839334  0.77446720  0.03067700    -0.73800
O99         O  0.64360853  0.88594169  0.01029102    -0.73700
O100        O  0.64182441  0.80480753  0.47992464    -0.79300
O101        O  0.56926203  0.87293903  0.00733525    -0.77600
O102        O  0.57362797  0.79227354  0.02161082    -1.13700
O103        O  0.48749011  0.79213309  0.02061810    -0.72900
C104        C  0.47756475  0.78133337  0.04719875     0.97800
C105        C  0.62146978  0.72965941  0.03548845     0.94200
Al106      Al  0.63889195  0.82641513  0.02044600     1.55600
O107        O  0.49227899  0.70289359  0.02350410    -0.77500
C108        C  0.61481595  0.90206094  0.00874255     0.98400
C109        C  0.62326277  0.81954597  0.08313007     0.93300
O110        O  0.58681557  0.77780627  0.07954397    -0.82800
O111        O  0.48297666  0.74039879  0.30036125    -0.82300
C112        C  0.61093253  0.81405604  0.20713753     0.97100
O113        O  0.56586187  0.79232027  0.21232501    -0.71400
O114        O  0.48359579  0.73483580  0.24011456    -0.75000
Al115      Al  0.53766910  0.79994783  0.24678133     1.49000
C116        C  0.47806991  0.69323019  0.24511057     0.92300
O117        O  0.58440533  0.70970186  0.29350389    -0.81200
O118        O  0.64207122  0.80942026  0.31293424    -0.74800
Al119      Al  0.53796534  0.73110717  0.29416502     1.90100
O120        O  0.63868661  0.75875234  0.26186386    -0.73800
O121        O  0.64003294  0.87555450  0.27869586    -0.73700
O122        O  0.64177501  0.82777497  0.22809687    -0.79300
O123        O  0.58357928  0.86843549  0.24787526    -0.77600
O124        O  0.57061009  0.78225329  0.27046404    -1.13700
O125        O  0.50662640  0.81027849  0.27870511    -0.72900
C126        C  0.47744102  0.77636339  0.29518689     0.97800
C127        C  0.62046453  0.72059317  0.27715008     0.94200
Al128      Al  0.63528578  0.81498022  0.27044362     1.55600
O129        O  0.50683846  0.68855049  0.26203940    -0.77500
C130        C  0.62141189  0.89460306  0.26303052     0.98400
C131        C  0.61135636  0.79375356  0.33383728     0.93300
O132        O  0.56625934  0.76825142  0.32863083    -0.82800
O133        O  0.73477477  0.24938028  0.20102858    -0.82300
C134        C  0.80033625  0.18770584  0.29517643     0.97100
O135        O  0.77881708  0.21102466  0.29027047    -0.71400
O136        O  0.75149542  0.26591276  0.26182574    -0.75000
Al137      Al  0.73718079  0.19941121  0.25781382     1.49000
C138        C  0.78562774  0.30641262  0.25246554     0.92300
O139        O  0.86771439  0.28040380  0.20377294    -0.81200
O140        O  0.82437918  0.18110526  0.18896554    -0.74800
Al141      Al  0.79957365  0.25961068  0.20517968     1.90100
O142        O  0.87669788  0.23542062  0.23701964    -0.73800
O143        O  0.75646554  0.11936976  0.22589223    -0.73700
O144        O  0.81226452  0.16960410  0.27411675    -0.79300
O145        O  0.71280154  0.13018920  0.25920899    -0.77600
O146        O  0.78390937  0.21276290  0.23156032    -1.13700
O147        O  0.68954636  0.18594922  0.22865616    -0.72900
C148        C  0.69325628  0.21663662  0.20985636     0.97800
C149        C  0.89475363  0.27065018  0.21927136     0.94200
Al150      Al  0.81478243  0.17915829  0.23154071     1.55600
O151        O  0.81584117  0.30776902  0.23413591    -0.77500
C152        C  0.72117146  0.10217072  0.24361741     0.98400
C153        C  0.80708152  0.19406258  0.16799986     0.93300
O154        O  0.78526256  0.21701760  0.17301396    -0.82800
O155        O  0.73507261  0.23513016  0.44113291    -0.82300
C156        C  0.80288968  0.18979822  0.04339641     0.97100
O157        O  0.76316036  0.18708991  0.03756420    -0.71400
O158        O  0.76791960  0.26996016  0.02253074    -0.75000
Al159      Al  0.73773987  0.20511509  0.00609013     1.49000
C160        C  0.78165574  0.30775178  0.00701931     0.92300
O161        O  0.86934960  0.29895031  0.46543198    -0.81200
O162        O  0.80449040  0.16472149  0.44088392    -0.74800
Al163      Al  0.80128525  0.26347582  0.45529255     1.90100
O164        O  0.87997316  0.23721666  0.47336631    -0.73800
O165        O  0.76185643  0.12251114  0.49100549    -0.73700
O166        O  0.83422142  0.20011420  0.02335812    -0.79300
O167        O  0.70068696  0.13518010  0.49663951    -0.77600
O168        O  0.78609440  0.21635292  0.48194825    -1.13700
O169        O  0.69976602  0.21517349  0.48423813    -0.72900
C170        C  0.69892083  0.22436057  0.45755982     0.97800
C171        C  0.89747639  0.28211857  0.46872004     0.94200
Al172      Al  0.81755648  0.18297024  0.48213208     1.55600
O173        O  0.79298599  0.30456615  0.48090509    -0.77500
C174        C  0.71702089  0.10637824  0.49499192     0.98400
C175        C  0.81012045  0.19248099  0.41950391     0.93300
O176        O  0.81317008  0.23283652  0.42376863    -0.82800
O177        O  0.74957942  0.48895919  0.03459242    -0.82300
C178        C  0.81529586  0.61899803  0.12751233     0.97100
O179        O  0.78966512  0.57392309  0.12255926    -0.71400
O180        O  0.73583117  0.48933987  0.09492579    -0.75000
Al181      Al  0.80146914  0.54382713  0.09056765     1.49000
C182        C  0.69470510  0.48237619  0.08674370     0.92300
O183        O  0.71657120  0.58990434  0.03750478    -0.81200
O184        O  0.81621992  0.64661525  0.02092527    -0.74800
Al185      Al  0.73808185  0.54287012  0.03870935     1.90100
O186        O  0.76397198  0.64472937  0.07004770    -0.73800
O187        O  0.87984239  0.64231003  0.05719807    -0.73700
O188        O  0.83232484  0.64894645  0.10629896    -0.79300
O189        O  0.87045708  0.59029083  0.09174765    -0.77600
O190        O  0.78665867  0.57574034  0.06418854    -1.13700
O191        O  0.81505048  0.51060474  0.06157592    -0.72900
C192        C  0.78375432  0.48226766  0.04317821     0.97800
C193        C  0.72733524  0.62720098  0.05310087     0.94200
Al194      Al  0.82022829  0.64037484  0.06363810     1.55600
O195        O  0.69187519  0.51109845  0.06893881    -0.77500
C196        C  0.89792270  0.62563159  0.07525803     0.98400
C197        C  0.80160526  0.61563226  0.00003870     0.93300
O198        O  0.77807305  0.57069440  0.00543054    -0.82800
O199        O  0.77443279  0.50479500  0.27165941    -0.82300
C200        C  0.80762371  0.62189797  0.37515877     0.97100
O201        O  0.80941261  0.58376465  0.37169702    -0.71400
O202        O  0.73079261  0.50511827  0.35125148    -0.75000
Al203      Al  0.79842471  0.54043692  0.34049044     1.49000
C204        C  0.69515758  0.48133429  0.33377992     0.92300
O205        O  0.71000050  0.57544683  0.29056906    -0.81200
O206        O  0.84768390  0.64544966  0.27361539    -0.74800
Al207      Al  0.74541067  0.54261446  0.28327949     1.90100
O208        O  0.77223154  0.64805059  0.29974015    -0.73800
O209        O  0.88157866  0.64514235  0.32717931    -0.73700
O210        O  0.80408187  0.64431225  0.35316645    -0.79300
O211        O  0.86710930  0.57075316  0.33349413    -0.77600
O212        O  0.78909275  0.57435952  0.31232834    -1.13700
O213        O  0.78995871  0.48949803  0.31608428    -0.72900
C214        C  0.78324170  0.47927432  0.28912103     0.97800
C215        C  0.72823224  0.62100367  0.29267656     0.94200
Al216      Al  0.82325354  0.63975865  0.31329936     1.55600
O217        O  0.69952701  0.49138730  0.30677174    -0.77500
C218        C  0.89642530  0.61618158  0.33288637     0.98400
C219        C  0.82235320  0.62393966  0.25097335     0.93300
O220        O  0.78109274  0.58649551  0.25323634    -0.82800
O221        O  0.49865517  0.23713537  0.18857502    -0.82300
C222        C  0.38092293  0.18684779  0.08369737     0.97100
O223        O  0.41715576  0.18238280  0.08912807    -0.71400
O224        O  0.49794776  0.26501821  0.10479536    -0.75000
Al225      Al  0.46167096  0.20064734  0.12112865     1.49000
C226        C  0.52231952  0.30384702  0.11976589     0.92300
O227        O  0.43214940  0.30165342  0.16142628    -0.81200
O228        O  0.35703924  0.16933709  0.18742225    -0.74800
Al229      Al  0.46270993  0.26586673  0.17279792     1.90100
O230        O  0.35787939  0.24091683  0.15328904    -0.73800
O231        O  0.35702474  0.12411550  0.13816924    -0.73700
O232        O  0.36069031  0.19716684  0.10418113    -0.79300
O233        O  0.43035296  0.13471971  0.13472603    -0.77600
O234        O  0.42935682  0.21756235  0.14660408    -1.13700
O235        O  0.51357754  0.21417576  0.14631891    -0.72900
C236        C  0.52339552  0.22448023  0.17312321     0.97800
C237        C  0.38723229  0.28553956  0.15768980     0.94200
Al238      Al  0.36405757  0.18572240  0.14576161     1.55600
O239        O  0.51367719  0.30558964  0.14671858    -0.77500
C240        C  0.38486767  0.10674964  0.13730242     0.98400
C241        C  0.37968231  0.19807016  0.20867544     0.93300
O242        O  0.41882649  0.23723488  0.20416740    -0.82800
O243        O  0.49783698  0.22645316  0.43455505    -0.82300
C244        C  0.37771165  0.18638149  0.33277797     0.97100
O245        O  0.41717269  0.18687401  0.33545187    -0.71400
O246        O  0.49643360  0.26748413  0.35361658    -0.75000
Al247      Al  0.46223650  0.20030495  0.36614310     1.49000
C248        C  0.52161344  0.30353200  0.37053475     0.92300
O249        O  0.42986439  0.29231927  0.41234425    -0.81200
O250        O  0.36090229  0.15671540  0.43715962    -0.74800
Al251      Al  0.46213091  0.25687230  0.42189143     1.90100
O252        O  0.35637958  0.22879103  0.40660176    -0.73800
O253        O  0.35908759  0.11606495  0.38466065    -0.73700
O254        O  0.35554351  0.18892907  0.35521567    -0.79300
O255        O  0.43334150  0.13232542  0.37457744    -0.77600
O256        O  0.42912020  0.21070950  0.39453648    -1.13700
O257        O  0.51455968  0.21068312  0.39041689    -0.72900
C258        C  0.52267949  0.21553931  0.41772124     0.97800
C259        C  0.38406142  0.27385357  0.41102861     0.94200
Al260      Al  0.36387829  0.17566492  0.39577765     1.55600
O261        O  0.51344105  0.29963188  0.39771140    -0.77500
C262        C  0.38852971  0.10214530  0.37792320     0.98400
C263        C  0.38229742  0.18652487  0.45822545     0.93300
O264        O  0.41955592  0.22674500  0.45323602    -0.82800
C265        C  0.36226731  0.18844446  0.23977152    -0.00600
C266        C  0.37034816  0.22889606  0.25700467    -0.12500
C267        C  0.36924993  0.22707059  0.28792317     0.01600
C268        C  0.35988413  0.18414523  0.30228589    -0.00700
C269        C  0.34677425  0.14216984  0.28517427    -0.12500
C270        C  0.34709789  0.14375726  0.25408067     0.01500
H271        H  0.38123609  0.26332841  0.24630177     0.14500
H272        H  0.33986427  0.10903330  0.29611350     0.14500
C273        C  0.33598625  0.10034452  0.23768948     0.36100
C274        C  0.38322887  0.27118872  0.30443027     0.36000
N275        N  0.32664238  0.06518685  0.22478797    -0.44200
N276        N  0.39453155  0.30651717  0.31770619    -0.44200
C277        C  0.36587606  0.17748655  0.48957377    -0.00600
C278        C  0.35466702  0.14294937  0.00400366    -0.12500
C279        C  0.35462443  0.14069925  0.03514229     0.01600
C280        C  0.36515525  0.18214268  0.05240782    -0.00700
C281        C  0.37182962  0.22381062  0.03819340    -0.12500
C282        C  0.37267559  0.22658577  0.00736396     0.01500
H283        H  0.35841716  0.10642794  0.49160270     0.14500
H284        H  0.38126541  0.25598933  0.05113569     0.14500
C285        C  0.37552412  0.26060892  0.49378028     0.36100
C286        C  0.34611093  0.09635886  0.04906994     0.36000
N287        N  0.38302490  0.29745925  0.48430471    -0.44200
N288        N  0.33915637  0.06090691  0.06042926    -0.44200
C289        C  0.56302294  0.35082605  0.36007062    -0.00600
C290        C  0.59431978  0.38479576  0.38155295    -0.12500
C291        C  0.63600162  0.42851858  0.37372609     0.01600
C292        C  0.64825058  0.43890110  0.34373490    -0.00700
C293        C  0.61563715  0.40626739  0.32218808    -0.12500
C294        C  0.57319178  0.36300814  0.33004143     0.01500
H295        H  0.58668086  0.37717278  0.40486088     0.14500
H296        H  0.62355837  0.41402275  0.29891606     0.14500
C297        C  0.54041925  0.33261328  0.30688196     0.36100
C298        C  0.66464761  0.46236985  0.39695261     0.36000
N299        N  0.51378324  0.30844436  0.28840761    -0.44200
N300        N  0.68735710  0.48979437  0.41548423    -0.44200
C301        C  0.81083905  0.63867196  0.40596877    -0.00600
C302        C  0.85307055  0.64928489  0.42205177    -0.12500
C303        C  0.85238989  0.64617726  0.45297129     0.01600
C304        C  0.80870769  0.63155849  0.46819808    -0.00700
C305        C  0.76768409  0.62514306  0.45239323    -0.12500
C306        C  0.76867133  0.62917120  0.42145817     0.01500
H307        H  0.88554595  0.65603402  0.41024465     0.14500
H308        H  0.73399527  0.61426267  0.46409328     0.14500
C309        C  0.72498348  0.61937644  0.40582286     0.36100
C310        C  0.89559365  0.65407276  0.46839949     0.36000
N311        N  0.69024242  0.61191339  0.39309571    -0.44200
N312        N  0.93018221  0.66044153  0.48084560    -0.44200
C313        C  0.83888547  0.64028248  0.22061808    -0.00600
C314        C  0.81806772  0.66398303  0.20549851    -0.12500
C315        C  0.81355369  0.66144423  0.17453837     0.01600
C316        C  0.82990627  0.63464390  0.15844404    -0.00700
C317        C  0.85461285  0.61479940  0.17334050    -0.12500
C318        C  0.85895230  0.61716446  0.20415428     0.01500
H319        H  0.80078929  0.68013441  0.21800438     0.14500
H320        H  0.86729767  0.59409504  0.16099330     0.14500
C321        C  0.87850762  0.59031980  0.21862939     0.36100
C322        C  0.78734628  0.68175266  0.16018231     0.36000
N323        N  0.89377670  0.56854249  0.23031460    -0.44200
N324        N  0.76615531  0.69787374  0.14869799    -0.44200
C325        C  0.64979547  0.43726870  0.09519840    -0.00600
C326        C  0.64792436  0.39265373  0.09079512    -0.12500
C327        C  0.60507198  0.34829985  0.09610378     0.01600
C328        C  0.56359158  0.34820476  0.10707641    -0.00700
C329        C  0.56544309  0.39289366  0.11134734    -0.12500
C330        C  0.60766719  0.43718578  0.10478703     0.01500
H331        H  0.67981306  0.39244963  0.08255490     0.14500
H332        H  0.53395132  0.39314282  0.12023903     0.14500
C333        C  0.60741730  0.48206807  0.10885184     0.36100
C334        C  0.60514166  0.30360364  0.09080884     0.36000
N335        N  0.60730535  0.51811804  0.11191873    -0.44200
N336        N  0.60548632  0.26801212  0.08615571    -0.44200
C337        C  0.78198306  0.35152424  0.01801037    -0.00600
C338        C  0.76961920  0.37667527  0.99744138    -0.12500
C339        C  0.77116097  0.41981929  0.00492720     0.01600
C340        C  0.78490140  0.43864788  0.03366077    -0.00700
C341        C  0.79746560  0.41379553  0.05440562    -0.12500
C342        C  0.79592471  0.37025695  0.04681907     0.01500
H343        H  0.75869021  0.36256639  0.97515220     0.14500
H344        H  0.80914144  0.42676054  0.57683553     0.14500
C345        C  0.80975274  0.34424801  0.56964272     0.36100
C346        C  0.76038353  0.44499729  0.98235684     0.36000
N347        N  0.81929746  0.32459871  0.58760578    -0.44200
N348        N  0.75206463  0.46538686  0.96427261    -0.44200
C349        C  0.56470487  0.21245522  0.42900959    -0.00600
C350        C  0.58648996  0.23614268  0.45556734    -0.12500
C351        C  0.63052006  0.24095167  0.46486353     0.01600
C352        C  0.65448329  0.22287640  0.44695675    -0.00700
C353        C  0.63224798  0.19795834  0.42083969    -0.12500
C354        C  0.58705627  0.19138847  0.41212948     0.01500
H355        H  0.56971631  0.25205306  0.46886227     0.14500
H356        H  0.64920076  0.18183446  0.40790392     0.14500
C357        C  0.56369460  0.16090486  0.38658560     0.36100
C358        C  0.65008574  0.26487337  0.49295064     0.36000
N359        N  0.54495595  0.13595545  0.36631995    -0.44200
N360        N  0.66481980  0.28334600  0.51569766    -0.44200
C361        C  0.80926658  0.18028372  0.32618458    -0.00600
C362        C  0.77097162  0.14293011  0.34239655    -0.12500
C363        C  0.77294869  0.14233334  0.37342948     0.01600
C364        C  0.81345944  0.17998183  0.38847323    -0.00700
C365        C  0.85332634  0.21482766  0.37200735    -0.12500
C366        C  0.85153841  0.21510916  0.34109636     0.01500
H367        H  0.73818221  0.11613797  0.33092921     0.14500
H368        H  0.88447381  0.24416193  0.38344599     0.14500
C369        C  0.89176416  0.25361505  0.32514159     0.36100
C370        C  0.73128862  0.10577589  0.38944090     0.36000
N371        N  0.92379309  0.28424908  0.31209718    -0.44200
N372        N  0.69810497  0.07652110  0.40243842    -0.44200
C373        C  0.81090930  0.18184667  0.07460641    -0.00600
C374        C  0.85247659  0.21770057  0.08941419    -0.12500
C375        C  0.85371952  0.22022767  0.12040936     0.01600
C376        C  0.81384220  0.18498629  0.13697437    -0.00700
C377        C  0.77447293  0.14658813  0.12227079    -0.12500
C378        C  0.77222392  0.14502782  0.09142320     0.01500
H379        H  0.88168591  0.24669361  0.07685507     0.14500
H380        H  0.74339925  0.12011229  0.13491949     0.14500
C381        C  0.72737702  0.10778472  0.07802134     0.36100
C382        C  0.89381004  0.26235085  0.13437580     0.36000
N383        N  0.69045796  0.07804632  0.06825734    -0.44200
N384        N  0.92605701  0.29680678  0.14496219    -0.44200
C385        C  0.78797113  0.35219978  0.26160734    -0.00600
C386        C  0.76932677  0.35373884  0.28922958    -0.12500
C387        C  0.76688838  0.39437601  0.29816587     0.01600
C388        C  0.78375465  0.43522403  0.27926694    -0.00700
C389        C  0.80179006  0.43361941  0.25139018    -0.12500
C390        C  0.80409428  0.39262036  0.24239323     0.01500
H391        H  0.75596230  0.32266862  0.30385622     0.14500
H392        H  0.81424173  0.46445272  0.23667671     0.14500
C393        C  0.82086849  0.39234271  0.21282167     0.36100
C394        C  0.74483244  0.39191177  0.32647825     0.36000
N395        N  0.83417433  0.39227856  0.18906636    -0.44200
N396        N  0.72719629  0.38984720  0.34915023    -0.44200
C397        C  0.64901187  0.21693130  0.20005824    -0.00600
C398        C  0.60991420  0.20216105  0.21991495    -0.12500
C399        C  0.56890240  0.20568888  0.21243012     0.01600
C400        C  0.56664015  0.22392555  0.18457969    -0.00700
C401        C  0.60586061  0.23887791  0.16502270    -0.12500
C402        C  0.64649416  0.23533253  0.17229494     0.01500
H403        H  0.61168539  0.18850306  0.24149093     0.14500
H404        H  0.60451690  0.25303146  0.14363528     0.14500
C405        C  0.68399350  0.24911001  0.15027770     0.36100
C406        C  0.52926888  0.18899890  0.23313916     0.36000
N407        N  0.71376047  0.25996784  0.13249654    -0.44200
N408        N  0.49747987  0.17558584  0.24973986    -0.44200
C409        C  0.69919088  0.64439069  0.28612024    -0.00600
C410        C  0.64866805  0.61906435  0.29092131    -0.12500
C411        C  0.62135839  0.64216050  0.28705553     0.01600
C412        C  0.64474686  0.69134233  0.27783988    -0.00700
C413        C  0.69457013  0.71535645  0.27130569    -0.12500
C414        C  0.72185480  0.69280976  0.27545129     0.01500
H415        H  0.63073727  0.58169825  0.29853856     0.14500
H416        H  0.71305496  0.75293297  0.26400096     0.14500
C417        C  0.77325834  0.72104351  0.26868694     0.36100
C418        C  0.56958441  0.61442256  0.29248679     0.36000
N419        N  0.81443284  0.74411108  0.26346129    -0.44200
N420        N  0.52806590  0.59201124  0.29678617    -0.44200
C421        C  0.64674363  0.94801589  0.25990076    -0.00600
C422        C  0.62020610  0.97232496  0.26066493    -0.12500
C423        C  0.64330570  0.02269838  0.25547809     0.01600
C424        C  0.69336103  0.04890365  0.24832173    -0.00700
C425        C  0.71939625  0.02419032  0.24720316    -0.12500
C426        C  0.69685984  0.97451869  0.25314777     0.01500
H427        H  0.58147345  0.95193974  0.26536142     0.14500
H428        H  0.75801285  0.04400598  0.24208851     0.14500
C429        C  0.72578335  0.95137367  0.25082701     0.36100
C430        C  0.61472314  0.04624814  0.25681086     0.36000
N431        N  0.74909386  0.93300161  0.24893392    -0.44200
N432        N  0.59188557  0.06520958  0.25792690    -0.44200
C433        C  0.69847823  0.65214550  0.05026001    -0.00600
C434        C  0.65269034  0.62831089  0.03585107    -0.12500
C435        C  0.62619321  0.65214580  0.03094714     0.01600
C436        C  0.64552099  0.70074100  0.04048380    -0.00700
C437        C  0.69076096  0.72419797  0.05507569    -0.12500
C438        C  0.71730923  0.70091821  0.05988376     0.01500
H439        H  0.63784366  0.59123527  0.02794589     0.14500
H440        H  0.70592096  0.76154947  0.06263268     0.14500
C441        C  0.76485145  0.72950455  0.07346555     0.36100
C442        C  0.57613754  0.61875052  0.52015256     0.36000
N443        N  0.80300821  0.75266893  0.08418631    -0.44200
N444        N  0.53808524  0.59707517  0.50909940    -0.44200
C445        C  0.68608183  0.05337415  0.50065367    -0.00600
C446        C  0.70899528  0.03613528  0.01296964    -0.12500
C447        C  0.68415874  0.98671473  0.01923413     0.01600
C448        C  0.63689587  0.95587669  0.00744751    -0.00700
C449        C  0.61266552  0.97315687  0.49626387    -0.12500
C450        C  0.63669336  0.02411510  0.49216791     0.01500
H451        H  0.74544828  0.05868915  0.02193647     0.14500
H452        H  0.57576693  0.95044378  0.48805401     0.14500
C453        C  0.61061479  0.04509422  0.47849145     0.36100
C454        C  0.70884718  0.96923054  0.03800835     0.36000
N455        N  0.58953680  0.06199360  0.46779894    -0.44200
N456        N  0.72916995  0.95578061  0.05294735    -0.44200
C457        C  0.62737265  0.80349471  0.36507548    -0.00600
C458        C  0.62146660  0.76446346  0.38255525    -0.12500
C459        C  0.62499111  0.76847479  0.41350283     0.01600
C460        C  0.63408566  0.81199754  0.42739144    -0.00700
C461        C  0.64312724  0.85202728  0.40975082    -0.12500
C462        C  0.64003935  0.84815490  0.37881259     0.01500
H463        H  0.61105224  0.72978910  0.37209616     0.14500
H464        H  0.64911023  0.88530803  0.42027869     0.14500
C465        C  0.64546249  0.88887493  0.36178620     0.36100
C466        C  0.61363713  0.72589445  0.43067044     0.36000
N467        N  0.64964052  0.92138818  0.34808891    -0.44200
N468        N  0.60427987  0.69188922  0.44462286    -0.44200
C469        C  0.62652617  0.82647265  0.17606608    -0.00600
C470        C  0.60731712  0.85058730  0.15991479    -0.12500
C471        C  0.61238112  0.85520235  0.12920572     0.01600
C472        C  0.63693531  0.83533886  0.11403968    -0.00700
C473        C  0.65948478  0.81458813  0.13042161    -0.12500
C474        C  0.65479604  0.81038638  0.16133689     0.01500
H475        H  0.58580831  0.86339429  0.17116969     0.14500
H476        H  0.67703136  0.79777038  0.11882133     0.14500
C477        C  0.67476602  0.78499106  0.17700647     0.36100
C478        C  0.58740001  0.87550739  0.11330429     0.36000
N479        N  0.69059695  0.76453092  0.18965069    -0.44200
N480        N  0.56732207  0.89153995  0.10042329    -0.44200
C481        C  0.05405244  0.36157115  0.45583897    -0.00600
C482        C  0.02633190  0.38163558  0.44546047    -0.12500
C483        C  0.97558525  0.35811798  0.45048449     0.01600
C484        C  0.95172937  0.31364633  0.46629824    -0.04300
C485        C  0.98036866  0.29570854  0.47816403    -0.12500
C486        C  0.03055079  0.31896892  0.47330114     0.01500
H487        H  0.04396564  0.41477559  0.43255873     0.14500
H488        H  0.96466556  0.26910563  0.99103577     0.14500
C489        C  0.05767946  0.30352399  0.98524900     0.36100
C490        C  0.94891300  0.37949960  0.43815309     0.36000
N491        N  0.07851514  0.28607156  0.99555573    -0.44200
N492        N  0.92761370  0.39680940  0.42833079    -0.44200
C493        C  0.31302752  0.35799796  0.42180136    -0.00600
C494        C  0.29176779  0.31022683  0.43250830    -0.12500
C495        C  0.31469712  0.28308318  0.42960285     0.01600
C496        C  0.36092691  0.30369858  0.41597398    -0.00700
C497        C  0.38395757  0.35251685  0.40686481    -0.12500
C498        C  0.36034100  0.37969650  0.40948039     0.01500
H499        H  0.25619271  0.29325406  0.44284981     0.14500
H500        H  0.41963178  0.36888206  0.39672296     0.14500
C501        C  0.38467785  0.42875058  0.39822453     0.36100
C502        C  0.28993885  0.23434761  0.44163959     0.36000
N503        N  0.40425023  0.46810692  0.38919653    -0.44200
N504        N  0.27021314  0.19547532  0.45141431    -0.44200
C505        C  0.35397050  0.56648547  0.46503273    -0.00600
C506        C  0.38965665  0.59712679  0.44445756    -0.12500
C507        C  0.43231516  0.63960279  0.45336132     0.01600
C508        C  0.44015522  0.65218339  0.48352673    -0.00700
C509        C  0.40553611  0.62032558  0.50415102    -0.12500
C510        C  0.36309154  0.57795424  0.49529075     0.01500
H511        H  0.38412909  0.58826965  0.42114132     0.14500
H512        H  0.41101271  0.62886137  0.52755412     0.14500
C513        C  0.33040344  0.54657718  0.51787803     0.36100
C514        C  0.47199337  0.66511178  0.93565130     0.36000
N515        N  0.30440967  0.52130731  0.53600501    -0.44200
N516        N  0.50288079  0.68482393  0.91858912    -0.44200
C517        C  0.04743017  0.34354729  0.19931439    -0.00600
C518        C  0.02542060  0.37110690  0.20622434    -0.12500
C519        C  0.97570229  0.34830660  0.21301296     0.01600
C520        C  0.94764377  0.29708197  0.21400007    -0.00700
C521        C  0.96942003  0.26954169  0.20696130    -0.12500
C522        C  0.01859296  0.29214823  0.19917220     0.01500
H523        H  0.04717016  0.41049968  0.20646883     0.14500
H524        H  0.94757438  0.23013244  0.20687794     0.14500
C525        C  0.03853690  0.26150698  0.19200654     0.36100
C526        C  0.95460824  0.37810306  0.21960817     0.36000
N527        N  0.05429222  0.23681915  0.18609542    -0.44200
N528        N  0.93771649  0.40201696  0.22485317    -0.44200
C529        C  0.36716163  0.31799192  0.16069735    -0.00600
C530        C  0.35974341  0.33015013  0.18926462    -0.12500
C531        C  0.33219218  0.35273782  0.19375974     0.01600
C532        C  0.31240502  0.36420933  0.16929173    -0.00700
C533        C  0.32211070  0.35436656  0.14069087    -0.12500
C534        C  0.34844380  0.33059277  0.13626820     0.01500
H535        H  0.37365413  0.32000085  0.20815293     0.14500
H536        H  0.30696273  0.36304099  0.12179122     0.14500
C537        C  0.35438820  0.31826295  0.10653113     0.36100
C538        C  0.32486091  0.36390885  0.22356007     0.36000
N539        N  0.35869597  0.30878502  0.08247810    -0.44200
N540        N  0.31919777  0.37306471  0.24744438    -0.44200
C541        C  0.17701412  0.35498214  0.34113963    -0.00600
C542        C  0.14310871  0.36395395  0.32713043    -0.12500
C543        C  0.14290466  0.36784347  0.29629991     0.01600
C544        C  0.17658380  0.36193718  0.27905026    -0.00700
C545        C  0.20668551  0.34757604  0.29281314    -0.12500
C546        C  0.20727890  0.34427195  0.32369308     0.01500
H547        H  0.12024615  0.37284051  0.34034034     0.14500
H548        H  0.23238270  0.34273435  0.27970695     0.14500
C549        C  0.24200522  0.33365798  0.33724026     0.36100
C550        C  0.11008243  0.38133230  0.28309498     0.36000
N551        N  0.26977930  0.32514126  0.34814030    -0.44200
N552        N  0.08353056  0.39210835  0.27285514    -0.44200
C553        C  0.18779474  0.37460877  0.08972860    -0.00600
C554        C  0.22308875  0.37016397  0.07357927    -0.12500
C555        C  0.22342341  0.37139274  0.04249369     0.01600
C556        C  0.18798921  0.37724429  0.02732502    -0.00700
C557        C  0.15077608  0.37808410  0.04357948    -0.12500
C558        C  0.15048992  0.37687563  0.07446504     0.01500
H559        H  0.25248729  0.36945044  0.08526434     0.14500
H560        H  0.12330977  0.38254706  0.03211012     0.14500
C561        C  0.11332993  0.38105608  0.09019039     0.36100
C562        C  0.26309351  0.37173377  0.02688309     0.36000
N563        N  0.08363328  0.38432791  0.10293528    -0.44200
N564        N  0.29488807  0.37218833  0.01424858    -0.44200
C565        C  0.34609503  0.56277197  0.22081032    -0.00600
C566        C  0.39130493  0.56541420  0.21707919    -0.12500
C567        C  0.43508853  0.60796490  0.22407416     0.01600
C568        C  0.43415118  0.64929913  0.23430130    -0.00700
C569        C  0.38933288  0.64709049  0.23766892    -0.12500
C570        C  0.34547486  0.60423709  0.23163583     0.01500
H571        H  0.39254249  0.53417422  0.20854947     0.14500
H572        H  0.38850287  0.67869938  0.24590797     0.14500
C573        C  0.30082010  0.60460685  0.23649037     0.36100
C574        C  0.48047349  0.60880313  0.21975966     0.36000
N575        N  0.26512693  0.60500671  0.24052761    -0.44200
N576        N  0.51684975  0.60952215  0.21626395    -0.44200
C577        C  0.31400722  0.94728026  0.36419410    -0.00600
C578        C  0.35669272  0.96976779  0.38178182    -0.12500
C579        C  0.38396924  0.02076507  0.38528551     0.01600
C580        C  0.36792387  0.04980058  0.37158218    -0.00700
C581        C  0.32778169  0.02790292  0.35240286    -0.12500
C582        C  0.30136090  0.97755839  0.34813937     0.01500
H583        H  0.36785207  0.94752874  0.39370327     0.14500
H584        H  0.31630371  0.05043797  0.34106440     0.14500
C585        C  0.26094587  0.95867935  0.32753079     0.36100
C586        C  0.42644806  0.04218599  0.40422885     0.36000
N587        N  0.22862989  0.94377765  0.31101443    -0.44200
N588        N  0.46064450  0.05949108  0.41931788    -0.44200
C589        C  0.05044294  0.69090649  0.35055561    -0.00600
C590        C  0.02802476  0.64492265  0.33648589    -0.12500
C591        C  0.97746689  0.61832474  0.33146080     0.01600
C592        C  0.94859154  0.63790637  0.34053554    -0.00700
C593        C  0.97059893  0.68235708  0.35607033    -0.12500
C594        C  0.02076914  0.70894773  0.36107125     0.01500
H595        H  0.05026386  0.63047556  0.32841014     0.14500
H596        H  0.94849743  0.69734533  0.36359007     0.14500
C597        C  0.04056792  0.75612641  0.37513266     0.36100
C598        C  0.95679732  0.57290397  0.31532667     0.36000
N599        N  0.05619922  0.79395805  0.38628800    -0.44200
N600        N  0.94027799  0.53651143  0.30235449    -0.44200
C601        C  0.21862517  0.64369830  0.37855853    -0.00600
C602        C  0.26217972  0.64290191  0.37594519    -0.12500
C603        C  0.26272566  0.59949895  0.37925551     0.01600
C604        C  0.21964286  0.55643226  0.38698600    -0.00700
C605        C  0.17586529  0.55684918  0.38900111    -0.12500
C606        C  0.17473508  0.59965078  0.38404160     0.01500
H607        H  0.29578417  0.67613527  0.37062168     0.14500
H608        H  0.14275161  0.52391796  0.39542078     0.14500
C609        C  0.12842368  0.59765505  0.38576533     0.36100
C610        C  0.30820973  0.60042573  0.37548173     0.36000
N611        N  0.09128884  0.59602650  0.38688507    -0.44200
N612        N  0.34461438  0.60125847  0.37192277    -0.44200
C613        C  0.43370012  0.77661316  0.30535881    -0.00600
C614        C  0.38850600  0.73325930  0.30344857    -0.12500
C615        C  0.34497658  0.73313990  0.30806796     0.01600
C616        C  0.34642543  0.77712847  0.31546867    -0.00700
C617        C  0.39195318  0.82030904  0.31774660    -0.12500
C618        C  0.43526498  0.82039491  0.31276633     0.01500
H619        H  0.38709651  0.69951646  0.29754138     0.14500
H620        H  0.39386600  0.85417522  0.32398918     0.14500
C621        C  0.48098619  0.86557902  0.31639696     0.36100
C622        C  0.29981102  0.68711992  0.30575888     0.36000
N623        N  0.51773400  0.90159883  0.31938788    -0.44200
N624        N  0.26366363  0.65020327  0.30391790    -0.44200
C625        C  0.31575748  0.95029408  0.13081054    -0.00600
C626        C  0.29013602  0.97250817  0.14111852    -0.12500
C627        C  0.31256051  0.02247377  0.14518761     0.01600
C628        C  0.36241809  0.05279144  0.13802477    -0.00700
C629        C  0.38923556  0.03053809  0.12937349    -0.12500
C630        C  0.36636618  0.97946408  0.12608792     0.01500
H631        H  0.25165579  0.95039115  0.14631485     0.14500
H632        H  0.42764737  0.05300961  0.12429848     0.14500
C633        C  0.39498109  0.95826656  0.11690401     0.36100
C634        C  0.28239370  0.04072893  0.15662595     0.36000
N635        N  0.41795296  0.94118849  0.10969424    -0.44200
N636        N  0.25786631  0.05489817  0.16572870    -0.44200
C637        C  0.05289086  0.69570684  0.09109281    -0.00600
C638        C  0.03206437  0.72193502  0.07931845    -0.12500
C639        C  0.98244820  0.69966003  0.07298766     0.01600
C640        C  0.95156653  0.64956646  0.07880075    -0.00700
C641        C  0.97206297  0.62308002  0.09067294    -0.12500
C642        C  0.02228100  0.64555505  0.09665598     0.01500
H643        H  0.05484481  0.76046664  0.07462074     0.14500
H644        H  0.94868684  0.58472705  0.09557604     0.14500
C645        C  0.04066066  0.61666497  0.10955188     0.36100
C646        C  0.96450464  0.73016814  0.06178179     0.36000
N647        N  0.05474607  0.59294786  0.11996116    -0.44200
N648        N  0.95047422  0.75488596  0.05284260    -0.44200
C649        C  0.19676545  0.81538473  0.01583648    -0.00600
C650        C  0.25077752  0.82562827  0.50339077    -0.12500
C651        C  0.25321330  0.82134164  0.47282236     0.01600
C652        C  0.21551575  0.81786215  0.45423183    -0.00700
C653        C  0.17787352  0.82245722  0.46731351    -0.12500
C654        C  0.17512581  0.82568440  0.49833021     0.01500
H655        H  0.27273714  0.87079179  0.01536370     0.14500
H656        H  0.14914594  0.82074653  0.45349609     0.14500
C657        C  0.11088321  0.74673815  0.01056126     0.36100
C658        C  0.29445077  0.81896035  0.46162225     0.36000
N659        N  0.07461208  0.71577214  0.01994810    -0.44200
N660        N  0.32745877  0.81666055  0.45303925    -0.44200
C661        C  0.17463514  0.81400154  0.26568490    -0.00600
C662        C  0.21315865  0.85506897  0.25261114    -0.12500
C663        C  0.21667293  0.85954853  0.22185316     0.01600
C664        C  0.18051738  0.82271394  0.20342855    -0.00700
C665        C  0.13894556  0.78444920  0.21667267    -0.12500
C666        C  0.13608345  0.77956893  0.24763631     0.01500
H667        H  0.24318931  0.88122284  0.26633328     0.14500
H668        H  0.11137583  0.75559796  0.20292387     0.14500
C669        C  0.09576402  0.73645107  0.26028020     0.36100
C670        C  0.26090847  0.89953813  0.20998194     0.36000
N671        N  0.06347601  0.70184388  0.27040747    -0.44200
N672        N  0.29715383  0.93154138  0.20128979    -0.44200
C673        C  0.21061450  0.56420244  0.16180184    -0.00600
C674        C  0.25419087  0.60863771  0.16613006    -0.12500
C675        C  0.25549420  0.65302593  0.16347137     0.01600
C676        C  0.21300737  0.65343532  0.15520082    -0.00700
C677        C  0.16915871  0.60900177  0.15159177    -0.12500
C678        C  0.16736851  0.56449603  0.15542664     0.01500
H679        H  0.28732073  0.60866425  0.17195682     0.14500
H680        H  0.13664210  0.60920129  0.14469097     0.14500
C681        C  0.12138677  0.51980711  0.15129686     0.36100
C682        C  0.30138977  0.69758340  0.16791788     0.36000
N683        N  0.08453678  0.48397032  0.14807207    -0.44200
N684        N  0.33823794  0.73310295  0.17181284    -0.44200
C685        C  0.43301768  0.77894273  0.05853620    -0.00600
C686        C  0.43357603  0.79734793  0.08659524    -0.12500
C687        C  0.39313898  0.79899702  0.09705062     0.01600
C688        C  0.34976099  0.77971439  0.07960901    -0.00700
C689        C  0.34942296  0.76106436  0.05149373    -0.12500
C690        C  0.39046019  0.76091590  0.04074020     0.01500
H691        H  0.46637641  0.81202157  0.10003594     0.14500
H692        H  0.31687670  0.74621887  0.03781537     0.14500
C693        C  0.38721030  0.74114722  0.01146259     0.36100
C694        C  0.39859548  0.82215579  0.12543507     0.36000
N695        N  0.38430164  0.72563942  0.98790004    -0.44200
N696        N  0.40343179  0.84102698  0.14811362    -0.44200
O697        O  0.26946566  0.76326878  0.57303319    -0.82300
C698        C  0.19365601  0.81378995  0.67235495     0.97100
O699        O  0.23337811  0.81485955  0.66904945    -0.71400
O700        O  0.23648820  0.73635092  0.65402870    -0.75000
Al701      Al  0.26528848  0.80139013  0.63906632     1.49000
C702        C  0.22016827  0.69747265  0.63915222     0.92300
O703        O  0.13492085  0.70387477  0.59439136    -0.81200
O704        O  0.20636792  0.83892241  0.56892741    -0.74800
Al705      Al  0.20333433  0.73739873  0.58572329     1.90100
O706        O  0.12696041  0.76794744  0.59768102    -0.73800
O707        O  0.24091832  0.88022153  0.62104675    -0.73700
O708        O  0.16582401  0.80662263  0.65039926    -0.79300
O709        O  0.30233230  0.86900043  0.62841525    -0.77600
O710        O  0.21870123  0.78613372  0.61157217    -1.13700
O711        O  0.30708096  0.79144782  0.61511615    -0.72900
C712        C  0.30751664  0.77956242  0.58880589     0.97800
C713        C  0.10845862  0.72285941  0.59397871     0.94200
Al714      Al  0.18771291  0.82015543  0.60964937     1.55600
O715        O  0.20875134  0.69572275  0.61248307    -0.77500
C716        C  0.28538440  0.89710430  0.62625642     0.98400
C717        C  0.20271653  0.81079042  0.54794244     0.93300
O718        O  0.19495245  0.76867159  0.55298451    -0.82800
O719        O  0.26174410  0.75172210  0.81918303    -0.82300
C720        C  0.20938870  0.81030558  0.92120352     0.97100
O721        O  0.23568740  0.79334612  0.91313344    -0.71400
O722        O  0.25763086  0.73866365  0.87973014    -0.75000
Al723      Al  0.26849487  0.80438621  0.87681219     1.49000
C724        C  0.22173520  0.69728818  0.87245104     0.92300
O725        O  0.12850837  0.71550550  0.82973184    -0.81200
O726        O  0.16363257  0.81315798  0.81773219    -0.74800
Al727      Al  0.19738448  0.74004020  0.82777626     1.90100
O728        O  0.12225487  0.75480893  0.86736939    -0.73800
O729        O  0.23320933  0.87753011  0.85287569    -0.73700
O730        O  0.18879516  0.82326885  0.90231260    -0.79300
O731        O  0.28948432  0.87286415  0.87806204    -0.77600
O732        O  0.21535242  0.78666487  0.85497374    -1.13700
O733        O  0.30934078  0.81858511  0.84349368    -0.72900
C734        C  0.30405969  0.78611654  0.82543105     0.97800
C735        C  0.10264064  0.72008067  0.84910208     0.94200
Al736      Al  0.17988639  0.81484498  0.85975264     1.55600
O737        O  0.18804956  0.69385801  0.85614082    -0.77500
C738        C  0.27434811  0.89812875  0.86536669     0.98400
C739        C  0.18121980  0.80420782  0.79500862     0.93300
O740        O  0.20500178  0.78252343  0.79712333    -0.82800
O741        O  0.25168371  0.51508321  0.65647019    -0.82300
C742        C  0.19555092  0.38265701  0.74797133     0.97100
O743        O  0.21590015  0.42780020  0.74372926    -0.71400
O744        O  0.26719375  0.51201929  0.71688127    -0.75000
Al745      Al  0.20242926  0.45664894  0.71166152     1.49000
C746        C  0.30899036  0.52236951  0.70778754     0.92300
O747        O  0.29066892  0.41930817  0.65506682    -0.81200
O748        O  0.19374561  0.35719512  0.64111725    -0.74800
Al749      Al  0.26537793  0.46273157  0.65867919     1.90100
O750        O  0.25141948  0.36467289  0.68929953    -0.73800
O751        O  0.12791523  0.35411059  0.67861581    -0.73700
O752        O  0.18080226  0.35307951  0.72640363    -0.79300
O753        O  0.13474581  0.40800117  0.71158554    -0.77600
O754        O  0.21954437  0.42727615  0.68490720    -1.13700
O755        O  0.18604455  0.48903886  0.68310304    -0.72900
C756        C  0.21684214  0.51976615  0.66571875     0.97800
C757        C  0.28642073  0.38522827  0.67137784     0.94200
Al758      Al  0.19094425  0.36258508  0.68397097     1.55600
O759        O  0.31318030  0.49646448  0.68817699    -0.77500
C760        C  0.10861350  0.37134553  0.69537461     0.98400
C761        C  0.20183175  0.38780975  0.62088754     0.93300
O762        O  0.22201725  0.43269897  0.62669053    -0.82800
O763        O  0.23828310  0.49971543  0.88868740    -0.82300
C764        C  0.19301358  0.39172060  0.99589544     0.97100
O765        O  0.18930607  0.42828059  0.99007662    -0.71400
O766        O  0.26798036  0.50734588  0.97185253    -0.75000
Al767      Al  0.20262704  0.46900418  0.95713919     1.49000
C768        C  0.30612073  0.53032034  0.95657499     0.92300
O769        O  0.30206960  0.43604052  0.92081688    -0.81200
O770        O  0.16679417  0.36187857  0.89279666    -0.74800
Al771      Al  0.26649113  0.46529889  0.90636811     1.90100
O772        O  0.23962872  0.36245060  0.92570278    -0.73800
O773        O  0.12399522  0.36228539  0.94356958    -0.73700
O774        O  0.19981660  0.36848396  0.97552398    -0.79300
O775        O  0.13475997  0.43565481  0.94640966    -0.77600
O776        O  0.21789054  0.43460411  0.93249838    -1.13700
O777        O  0.21259330  0.51687959  0.92950586    -0.72900
C778        C  0.22377774  0.52438492  0.90267766     0.97800
C779        C  0.28504153  0.39094401  0.92390823     0.94200
Al780      Al  0.18534906  0.36953945  0.93412476     1.55600
O781        O  0.30621281  0.51875704  0.93014605    -0.77500
C782        C  0.10692354  0.38999550  0.94727283     0.98400
C783        C  0.19690076  0.38114635  0.87187254     0.93300
O784        O  0.23786113  0.41838516  0.87629463    -0.82800
O785        O  0.50452556  0.76886513  0.56200175    -0.82300
C786        C  0.61925916  0.81873976  0.95863655     0.97100
O787        O  0.58219184  0.82142122  0.96440532    -0.71400
O788        O  0.50444328  0.73983458  0.98088889    -0.75000
Al789      Al  0.53912449  0.80542287  0.99569467     1.49000
C790        C  0.48130493  0.70240643  0.99683462     0.92300
O791        O  0.57434676  0.70595447  0.53755178    -0.81200
O792        O  0.64426349  0.84193527  0.56150221    -0.74800
Al793      Al  0.54200151  0.74093552  0.54782462     1.90100
O794        O  0.64722919  0.76917640  0.53151794    -0.73800
O795        O  0.64425963  0.88139541  0.51011415    -0.73700
O796        O  0.64193179  0.81129304  0.97910614    -0.79300
O797        O  0.56983384  0.86825223  0.50704605    -0.77600
O798        O  0.57374368  0.78780537  0.52110873    -1.13700
O799        O  0.48736788  0.78726219  0.51885881    -0.72900
C800        C  0.47799329  0.77826211  0.54572712     0.97800
C801        C  0.61993267  0.72432261  0.53605637     0.94200
Al802      Al  0.63874803  0.82140537  0.52068597     1.55600
O803        O  0.49164826  0.69910864  0.52217730    -0.77500
C804        C  0.61529354  0.89743989  0.50926229     0.98400
C805        C  0.62317611  0.81411857  0.58315401     0.93300
O806        O  0.58607000  0.77278739  0.57926511    -0.82800
O807        O  0.48516914  0.75061738  0.79810889    -0.82300
C808        C  0.61835238  0.81846849  0.70709331     0.97100
O809        O  0.57300955  0.79670425  0.71121977    -0.71400
O810        O  0.48879836  0.74090196  0.73767143    -0.75000
Al811      Al  0.54272890  0.80634440  0.74404957     1.49000
C812        C  0.48257884  0.69950200  0.74429000     0.92300
O813        O  0.58678365  0.71839284  0.79583816    -0.81200
O814        O  0.64400244  0.81723524  0.81346008    -0.74800
Al815      Al  0.54022600  0.74037586  0.79421709     1.90100
O816        O  0.64193367  0.76520445  0.76382135    -0.73800
O817        O  0.64293295  0.88269795  0.77803957    -0.73700
O818        O  0.64794758  0.83424552  0.72867828    -0.79300
O819        O  0.58927751  0.87486908  0.74480432    -0.77600
O820        O  0.57406729  0.78969806  0.76970048    -1.13700
O821        O  0.50915431  0.81849019  0.77402118    -0.72900
C822        C  0.47952764  0.78601342  0.79115453     0.97800
C823        C  0.62307605  0.72782943  0.77988728     0.94200
Al824      Al  0.63884283  0.82206387  0.77091620     1.55600
O825        O  0.50982632  0.69557272  0.76290841    -0.77500
C826        C  0.62513078  0.90152194  0.76144503     0.98400
C827        C  0.61250672  0.80477075  0.83368608     0.93300
O828        O  0.56754584  0.78032046  0.82786040    -0.82800
O829        O  0.73968213  0.25105674  0.70131429    -0.82300
C830        C  0.81539713  0.19896109  0.79509141     0.97100
O831        O  0.79535583  0.22367641  0.79022877    -0.71400
O832        O  0.76200605  0.27347385  0.76238575    -0.75000
Al833      Al  0.74908766  0.20801384  0.75986468     1.49000
C834        C  0.79371763  0.31362499  0.75148265     0.92300
O835        O  0.87433291  0.28592675  0.70237978    -0.81200
O836        O  0.83060517  0.18490317  0.68912810    -0.74800
Al837      Al  0.80573561  0.26407780  0.70450264     1.90100
O838        O  0.88512872  0.24137486  0.73530253    -0.73800
O839        O  0.76354912  0.12523063  0.72733526    -0.73700
O840        O  0.82330469  0.17738670  0.77417951    -0.79300
O841        O  0.72561903  0.13915204  0.76319282    -0.77600
O842        O  0.79264048  0.21922717  0.73186818    -1.13700
O843        O  0.69801406  0.19174742  0.73275907    -0.72900
C844        C  0.69945764  0.21908635  0.71226296     0.97800
C845        C  0.90214047  0.27635401  0.71733675     0.94200
Al846      Al  0.82305331  0.18508860  0.73152212     1.55600
O847        O  0.82247600  0.31475307  0.73211913    -0.77500
C848        C  0.73028825  0.10988757  0.74643336     0.98400
C849        C  0.81227174  0.19658852  0.66823411     0.93300
O850        O  0.79066888  0.21974716  0.67313974    -0.82800
O851        O  0.73689159  0.24096044  0.93905782    -0.82300
C852        C  0.80494565  0.18675768  0.54426215     0.97100
O853        O  0.76600637  0.18607952  0.53924496    -0.71400
O854        O  0.77042466  0.26827667  0.52378002    -0.75000
Al855      Al  0.73880638  0.20251767  0.50845919     1.49000
C856        C  0.78370926  0.30542405  0.50774980     0.92300
O857        O  0.87007739  0.30504755  0.96555823    -0.81200
O858        O  0.81001804  0.17252430  0.94003390    -0.74800
Al859      Al  0.80250494  0.26906333  0.95444445     1.90100
O860        O  0.88156189  0.24410544  0.97427847    -0.73800
O861        O  0.76377131  0.12749355  0.98877145    -0.73700
O862        O  0.83498983  0.19514767  0.52366428    -0.79300
O863        O  0.70131462  0.13865563  0.99260811    -0.77600
O864        O  0.78677178  0.22107256  0.98058848    -1.13700
O865        O  0.69970641  0.21872693  0.98141301    -0.72900
C866        C  0.70008604  0.22980156  0.95496592     0.97800
C867        C  0.89857283  0.28882217  0.96942457     0.94200
Al868      Al  0.81945315  0.18895997  0.98149576     1.55600
O869        O  0.79234865  0.30843626  0.98029829    -0.77500
C870        C  0.71847723  0.11053279  0.99124346     0.98400
C871        C  0.81624500  0.20089614  0.91890353     0.93300
O872        O  0.81649665  0.23992670  0.92315400    -0.82800
O873        O  0.75327014  0.48863506  0.53340796    -0.82300
C874        C  0.81677769  0.61973698  0.62651160     0.97100
O875        O  0.79236352  0.57440922  0.62206491    -0.71400
O876        O  0.73864928  0.48900346  0.59459480    -0.75000
Al877      Al  0.80410535  0.54378177  0.59002771     1.49000
C878        C  0.69742272  0.48082704  0.58564739     0.92300
O879        O  0.71769030  0.58770318  0.53713043    -0.81200
O880        O  0.81665727  0.64607782  0.52032193    -0.74800
Al881      Al  0.74051926  0.54171168  0.53773734     1.90100
O882        O  0.76496911  0.64265321  0.56973382    -0.73800
O883        O  0.88149526  0.64213889  0.55586117    -0.73700
O884        O  0.83449369  0.64896091  0.60507810    -0.79300
O885        O  0.87309139  0.59077873  0.59064470    -0.77600
O886        O  0.78881115  0.57496765  0.56337222    -1.13700
O887        O  0.81767958  0.50988569  0.56134160    -0.72900
C888        C  0.78701829  0.48171438  0.54257468     0.97800
C889        C  0.72785987  0.62441074  0.55317225     0.94200
Al890      Al  0.82166909  0.63961389  0.56275401     1.55600
O891        O  0.69446012  0.50906037  0.56757886    -0.77500
C892        C  0.90013294  0.62549480  0.57357158     0.98400
C893        C  0.80244491  0.61551512  0.49929251     0.93300
O894        O  0.78023729  0.57050369  0.50443199    -0.82800
O895        O  0.77196931  0.50709645  0.77055699    -0.82300
C896        C  0.81006342  0.62284971  0.87519283     0.97100
O897        O  0.81078684  0.58424674  0.87131207    -0.71400
O898        O  0.73001633  0.50749639  0.85122466    -0.75000
Al899      Al  0.79720411  0.54084514  0.83963732     1.49000
C900        C  0.69428592  0.48380719  0.83382121     0.92300
O901        O  0.70899231  0.57846352  0.79253488    -0.81200
O902        O  0.84622762  0.64613824  0.77245068    -0.74800
Al903      Al  0.74344555  0.54504722  0.78347130     1.90100
O904        O  0.77269555  0.65080769  0.80072201    -0.73800
O905        O  0.88231605  0.64437037  0.82543883    -0.73700
O906        O  0.80722671  0.64612960  0.85340861    -0.79300
O907        O  0.86509301  0.56889189  0.83152761    -0.77600
O908        O  0.78832781  0.57583589  0.81200695    -1.13700
O909        O  0.78630667  0.48965943  0.81476892    -0.72900
C910        C  0.78035511  0.48073533  0.78763249     0.97800
C911        C  0.72804211  0.62417984  0.79465544     0.94200
Al912      Al  0.82396750  0.64103151  0.81290336     1.55600
O913        O  0.69853374  0.49371242  0.80684573    -0.77500
C914        C  0.89558081  0.61394781  0.83059298     0.98400
C915        C  0.81883442  0.62588009  0.75027137     0.93300
O916        O  0.77733497  0.58918359  0.75333618    -0.82800
O917        O  0.50468406  0.23663010  0.68730639    -0.82300
C918        C  0.38333996  0.18284453  0.58346371     0.97100
O919        O  0.41962649  0.17878274  0.58920550    -0.71400
O920        O  0.50150397  0.26143334  0.60319930    -0.75000
Al921      Al  0.46464536  0.19816707  0.62081026     1.49000
C922        C  0.52695103  0.30080869  0.61746710     0.92300
O923        O  0.44094104  0.30423131  0.66048515    -0.81200
O924        O  0.36173671  0.17574512  0.68757878    -0.74800
Al925      Al  0.46989398  0.26675452  0.67161445     1.90100
O926        O  0.36618825  0.24570394  0.65056712    -0.73800
O927        O  0.35949542  0.12482942  0.64047186    -0.73700
O928        O  0.36445190  0.19564044  0.60346109    -0.79300
O929        O  0.43200714  0.13331883  0.63567024    -0.77600
O930        O  0.43425852  0.21783268  0.64605859    -1.13700
O931        O  0.51725170  0.21128289  0.64542143    -0.72900
C932        C  0.52787508  0.22175209  0.67213266     0.97800
C933        C  0.39663072  0.28987167  0.65554754     0.94200
Al934      Al  0.36897982  0.18819521  0.64552284     1.55600
O935        O  0.52000617  0.30404189  0.64452881    -0.77500
C936        C  0.38652393  0.10647035  0.63916074     0.98400
C937        C  0.38619733  0.20409417  0.70857004     0.93300
O938        O  0.42721379  0.24085202  0.70383640    -0.82800
O939        O  0.49883066  0.23264604  0.93291730    -0.82300
C940        C  0.37510389  0.19417439  0.83264930     0.97100
O941        O  0.41263095  0.19132241  0.83566573    -0.71400
O942        O  0.49381961  0.27127050  0.85245936    -0.75000
Al943      Al  0.45795492  0.20447332  0.86577603     1.49000
C944        C  0.51935816  0.30750376  0.86924506     0.92300
O945        O  0.43158030  0.30077582  0.91430470    -0.81200
O946        O  0.35752523  0.16674082  0.93714561    -0.74800
Al947      Al  0.46246519  0.26327769  0.92169510     1.90100
O948        O  0.35740288  0.24018418  0.90628488    -0.73800
O949        O  0.35364914  0.12467300  0.88499522    -0.73700
O950        O  0.35435992  0.19959979  0.85489698    -0.79300
O951        O  0.42659253  0.13657920  0.87542872    -0.77600
O952        O  0.42713351  0.21765190  0.89444245    -1.13700
O953        O  0.51113409  0.21427046  0.88862523    -0.72900
C954        C  0.52297258  0.22203946  0.91529986     0.97800
C955        C  0.38626040  0.28434004  0.91225674     0.94200
Al956      Al  0.36174118  0.18563340  0.89567776     1.55600
O957        O  0.51127524  0.30456387  0.89638862    -0.77500
C958        C  0.38128603  0.10827072  0.87889265     0.98400
C959        C  0.38195925  0.19481329  0.95833965     0.93300
O960        O  0.42152821  0.23291060  0.95344563    -0.82800
C961        C  0.36811763  0.19628306  0.73951720    -0.00600
C962        C  0.37569525  0.23727945  0.75598297    -0.12500
C963        C  0.37100604  0.23554527  0.78685266     0.01600
C964        C  0.35841810  0.19216648  0.80188125    -0.00700
C965        C  0.34644933  0.15004078  0.78523255    -0.12500
C966        C  0.35120590  0.15174037  0.75431176     0.01500
H967        H  0.38874804  0.27180339  0.74490879     0.14500
H968        H  0.33813770  0.11685674  0.79669987     0.14500
C969        C  0.34489196  0.10912636  0.73894779     0.36100
C970        C  0.38503421  0.28005472  0.80294715     0.36000
N971        N  0.34034473  0.07500953  0.72680718    -0.44200
N972        N  0.39643524  0.31559743  0.81601323    -0.44200
C973        C  0.36610726  0.18655147  0.98977301    -0.00600
C974        C  0.35953892  0.13595349  0.50426992    -0.12500
C975        C  0.36036591  0.13480415  0.53541855     0.01600
C976        C  0.36620764  0.17509054  0.55228531    -0.00700
C977        C  0.36656854  0.21367390  0.53764861    -0.12500
C978        C  0.36749720  0.21580804  0.50677328     0.01500
H979        H  0.34980078  0.11213150  0.99101072     0.14500
H980        H  0.37143170  0.24475975  0.55033522     0.14500
C981        C  0.38488977  0.27297113  0.99467156     0.36100
C982        C  0.35751540  0.09293667  0.54966433     0.36000
N983        N  0.39544497  0.31073867  0.98518270    -0.44200
N984        N  0.35507711  0.05933500  0.56111284    -0.44200
C985        C  0.56146284  0.35408916  0.85901379    -0.00600
C986        C  0.59382382  0.38630720  0.88081963    -0.12500
C987        C  0.63596400  0.42965502  0.87347907     0.01600
C988        C  0.64737768  0.44161764  0.84358886    -0.00700
C989        C  0.61395156  0.41057913  0.82175501    -0.12500
C990        C  0.57125245  0.36740263  0.82917997     0.01500
H991        H  0.58680603  0.37749977  0.90405734     0.14500
H992        H  0.62143818  0.41943624  0.79855783     0.14500
C993        C  0.53803950  0.33825987  0.80584537     0.36100
C994        C  0.66615713  0.46102256  0.89720510     0.36000
N995        N  0.51125181  0.31516825  0.78714489    -0.44200
N996        N  0.68998934  0.48614900  0.91631177    -0.44200
C997        C  0.81124310  0.63792825  0.90629073    -0.00600
C998        C  0.85399138  0.65247034  0.92295688    -0.12500
C999        C  0.85271263  0.64955986  0.95398870     0.01600
C1000       C  0.80787083  0.63087007  0.96871034    -0.00700
C1001       C  0.76584531  0.61947480  0.95222426    -0.12500
C1002       C  0.76731159  0.62320045  0.92131111     0.01500
H1003       H  0.88768766  0.66264531  0.91164968     0.14500
H1004       H  0.73118270  0.60500848  0.96343433     0.14500
C1005       C  0.72245173  0.60713375  0.90517027     0.36100
C1006       C  0.89686526  0.66202687  0.97003757     0.36000
N1007       N  0.68670417  0.59425566  0.89199850    -0.44200
N1008       N  0.93221427  0.67209603  0.98296827    -0.44200
C1009       C  0.83252078  0.64317661  0.71962332    -0.00600
C1010       C  0.80061922  0.65346532  0.70375978    -0.12500
C1011       C  0.79839874  0.65115987  0.67280599     0.01600
C1012       C  0.82775378  0.63738235  0.65732096    -0.00700
C1013       C  0.86267574  0.63143255  0.67287153    -0.12500
C1014       C  0.86546731  0.63453850  0.70383788     0.01500
H1015       H  0.77435388  0.65911131  0.71566373     0.14500
H1016       H  0.88543009  0.62087262  0.66092747     0.14500
C1017       C  0.89853946  0.62338996  0.71899019     0.36100
C1018       C  0.76323450  0.65927898  0.65753831     0.36000
N1019       N  0.92513588  0.61450264  0.73110687    -0.44200
N1020       N  0.73531549  0.66607740  0.64522403    -0.44200
C1021       C  0.65262546  0.43500198  0.59350088    -0.00600
C1022       C  0.65447606  0.39184862  0.59387985    -0.12500
C1023       C  0.61231271  0.34663483  0.59840547     0.01600
C1024       C  0.56759561  0.34423944  0.60385007    -0.00700
C1025       C  0.56545578  0.38718307  0.60302451    -0.12500
C1026       C  0.60717057  0.43219352  0.59705153     0.01500
H1027       H  0.68878574  0.39329619  0.58985350     0.14500
H1028       H  0.53126278  0.38561075  0.60767889     0.14500
C1029       C  0.60257213  0.47498110  0.59526304     0.36100
C1030       C  0.61606154  0.30335523  0.59766327     0.36000
N1031       N  0.59907696  0.50934078  0.59345592    -0.44200
N1032       N  0.61952311  0.26894185  0.59639481    -0.44200
C1033       C  0.78512965  0.35015797  0.51830742    -0.00600
C1034       C  0.77400590  0.37577654  0.49733414    -0.12500
C1035       C  0.77535462  0.41898249  0.50453517     0.01600
C1036       C  0.78829937  0.43790837  0.53331879    -0.00700
C1037       C  0.79972386  0.41267934  0.55446077    -0.12500
C1038       C  0.79778316  0.36875443  0.54726641     0.01500
H1039       H  0.76367219  0.36172796  0.47499329     0.14500
H1040       H  0.80780922  0.42804206  0.07669345     0.14500
C1041       C  0.81024157  0.34657902  0.06844246     0.36100
C1042       C  0.76465604  0.44378077  0.48167008     0.36000
N1043       N  0.82181723  0.32756333  0.08569046    -0.44200
N1044       N  0.75620057  0.46362580  0.46328829    -0.44200
C1045       C  0.56761271  0.22185005  0.92497620    -0.00600
C1046       C  0.58486188  0.23735871  0.95372084    -0.12500
C1047       C  0.62872037  0.24200881  0.96330759     0.01600
C1048       C  0.65641527  0.23012870  0.94406366    -0.00700
C1049       C  0.63992538  0.21534510  0.91518690    -0.12500
C1050       C  0.59603314  0.21099363  0.90543574     0.01500
H1051       H  0.56454596  0.24700298  0.96874778     0.14500
H1052       H  0.66084266  0.20612197  0.90038294     0.14500
C1053       C  0.58184053  0.19536112  0.87520590     0.36100
C1054       C  0.64481250  0.26060251  0.99291467     0.36000
N1055       N  0.57089707  0.18300139  0.85092882    -0.44200
N1056       N  0.65724290  0.27541836  0.01666157    -0.44200
C1057       C  0.82479981  0.19206480  0.82600923    -0.00600
C1058       C  0.78805352  0.15189592  0.84127066    -0.12500
C1059       C  0.78738214  0.15084603  0.87225076     0.01600
C1060       C  0.82388281  0.19075517  0.88821336    -0.00700
C1061       C  0.86299578  0.22877863  0.87285617    -0.12500
C1062       C  0.86357514  0.22979810  0.84195968     0.01500
H1063       H  0.75733379  0.12331742  0.82903320     0.14500
H1064       H  0.89116429  0.25980578  0.88508588     0.14500
C1065       C  0.90212121  0.27161242  0.82709037     0.36100
C1066       C  0.74616163  0.11153063  0.88706147     0.36000
N1067       N  0.93293944  0.30502500  0.81507044    -0.44200
N1068       N  0.71317201  0.08015985  0.89906187    -0.44200
C1069       C  0.81323000  0.17858857  0.57529026    -0.00600
C1070       C  0.85629239  0.21293250  0.58946120    -0.12500
C1071       C  0.85820332  0.21723767  0.62036037     0.01600
C1072       C  0.81725189  0.18522307  0.63743145    -0.00700
C1073       C  0.77614241  0.14779457  0.62343875    -0.12500
C1074       C  0.77346078  0.14441287  0.59267469     0.01500
H1075       H  0.88637504  0.23989731  0.57640514     0.14500
H1076       H  0.74442392  0.12370907  0.63649499     0.14500
C1077       C  0.72728247  0.10866019  0.57979915     0.36100
C1078       C  0.90027701  0.25850541  0.63346304     0.36000
N1079       N  0.68952252  0.08038688  0.57024187    -0.44200
N1080       N  0.93427514  0.29248061  0.64307521    -0.44200
C1081       C  0.79413727  0.35864099  0.76041499    -0.00600
C1082       C  0.77301736  0.35835713  0.78752612    -0.12500
C1083       C  0.76641938  0.39669907  0.79591547     0.01600
C1084       C  0.78241622  0.43772435  0.77729661    -0.00700
C1085       C  0.80329924  0.43822261  0.75001746    -0.12500
C1086       C  0.80905533  0.39901346  0.74133746     0.01500
H1087       H  0.76041661  0.32730515  0.80210073     0.14500
H1088       H  0.81545105  0.46936870  0.73559703     0.14500
C1089       C  0.82806714  0.40035727  0.71222724     0.36100
C1090       C  0.74117150  0.39163389  0.82339043     0.36000
N1091       N  0.84303486  0.40145408  0.68880183    -0.44200
N1092       N  0.72091686  0.38731380  0.84537100    -0.44200
C1093       C  0.65381151  0.21584983  0.70222985    -0.00600
C1094       C  0.62304083  0.21921649  0.72317126    -0.12500
C1095       C  0.58163806  0.22114386  0.71434593     0.01600
C1096       C  0.56963097  0.21795625  0.68402957    -0.00700
C1097       C  0.59966879  0.21221328  0.66344226    -0.12500
C1098       C  0.64190976  0.21247647  0.67213718     0.01500
H1099       H  0.63243105  0.22219027  0.74644707     0.14500
H1100       H  0.59085739  0.20845639  0.64012809     0.14500
C1101       C  0.67248617  0.20925006  0.64975310     0.36100
C1102       C  0.55260892  0.22659071  0.73679281     0.36000
N1103       N  0.69721933  0.20701949  0.63187352    -0.44200
N1104       N  0.52942020  0.23108653  0.75480122    -0.44200
C1105       C  0.69929988  0.64829047  0.78886374    -0.00600
C1106       C  0.64985705  0.62554998  0.79662052    -0.12500
C1107       C  0.62334040  0.64964476  0.79297498     0.01600
C1108       C  0.64653752  0.69755116  0.78146110    -0.00700
C1109       C  0.69515335  0.71881496  0.77225972    -0.12500
C1110       C  0.72136313  0.69487224  0.77563633     0.01500
H1111       H  0.63215462  0.58931987  0.80603213     0.14500
H1112       H  0.71346474  0.75504797  0.76282299     0.14500
C1113       C  0.77072230  0.71898604  0.76460075     0.36100
C1114       C  0.57228529  0.62384327  0.80050024     0.36000
N1115       N  0.81017790  0.73842321  0.75568264    -0.44200
N1116       N  0.53124973  0.60294622  0.80630307    -0.44200
C1117       C  0.64837346  0.95532506  0.75957617    -0.00600
C1118       C  0.64230569  0.97549037  0.73336954    -0.12500
C1119       C  0.66801800  0.02589837  0.72877732     0.01600
C1120       C  0.69931634  0.05716437  0.75096545    -0.00700
C1121       C  0.70404135  0.03755181  0.77753192    -0.12500
C1122       C  0.67944802  0.98717595  0.78197805     0.01500
H1123       H  0.61894293  0.95174520  0.71579684     0.14500
H1124       H  0.72892497  0.06176472  0.79447961     0.14500
C1125       C  0.68798218  0.96966116  0.80942624     0.36100
C1126       C  0.66219859  0.04478630  0.70108557     0.36000
N1127       N  0.69553725  0.95609508  0.83137985    -0.44200
N1128       N  0.65766480  0.06004885  0.67890556    -0.44200
C1129       C  0.69796018  0.64818884  0.55118962    -0.00600
C1130       C  0.65081831  0.62279228  0.53857984    -0.12500
C1131       C  0.62355758  0.64588975  0.53395542     0.01600
C1132       C  0.64378691  0.69541828  0.54170062    -0.00700
C1133       C  0.69000946  0.72004518  0.55510346    -0.12500
C1134       C  0.71708406  0.69741002  0.55982970     0.01500
H1135       H  0.63550475  0.58506507  0.53187512     0.14500
H1136       H  0.70565312  0.75790396  0.56171301     0.14500
C1137       C  0.76538870  0.72708526  0.57226099     0.36100
C1138       C  0.58077591  0.62705563  0.01475729     0.36000
N1139       N  0.80406536  0.75108155  0.58214894    -0.44200
N1140       N  0.54446343  0.60721043  0.00165012    -0.44200
C1141       C  0.68769915  0.05738973  0.99618379    -0.00600
C1142       C  0.70858816  0.03163892  0.51580171    -0.12500
C1143       C  0.68441887  0.98187054  0.52112372     0.01600
C1144       C  0.63682759  0.95128898  0.50971909    -0.00700
C1145       C  0.61446673  0.97709717  0.99127545    -0.12500
C1146       C  0.63943523  0.02774026  0.98577522     0.01500
H1147       H  0.74560211  0.05401129  0.52402972     0.14500
H1148       H  0.57847715  0.95402715  0.98192287     0.14500
C1149       C  0.61618348  0.04780857  0.96801875     0.36100
C1150       C  0.70984064  0.96382658  0.53876243     0.36000
N1151       N  0.59769198  0.06399052  0.95369778    -0.44200
N1152       N  0.73058293  0.94996847  0.55298345    -0.44200
C1153       C  0.62749470  0.81812910  0.86474404    -0.00600
C1154       C  0.64576953  0.79306465  0.88090658    -0.12500
C1155       C  0.64843866  0.79595084  0.91201069     0.01600
C1156       C  0.63332018  0.82490488  0.92700160    -0.00700
C1157       C  0.62063754  0.85415854  0.91027585    -0.12500
C1158       C  0.61619852  0.84990566  0.87962941     0.01500
H1159       H  0.65431749  0.76837304  0.86943758     0.14500
H1160       H  0.60986029  0.87745427  0.92142410     0.14500
C1161       C  0.59624436  0.87561556  0.86420205     0.36100
C1162       C  0.66257141  0.76587635  0.92795125     0.36000
N1163       N  0.57991021  0.89597738  0.85197858    -0.44200
N1164       N  0.67399463  0.74183364  0.94077529    -0.44200
C1165       C  0.63579405  0.82746138  0.67633698    -0.00600
C1166       C  0.63106171  0.86234362  0.66003096    -0.12500
C1167       C  0.63365026  0.86320000  0.62906093     0.01600
C1168       C  0.63988775  0.82793278  0.61405489    -0.00700
C1169       C  0.64913205  0.79603711  0.63059192    -0.12500
C1170       C  0.64771146  0.79598826  0.66158009     0.01500
H1171       H  0.62209164  0.88682227  0.67140226     0.14500
H1172       H  0.65389859  0.76870371  0.61919783     0.14500
C1173       C  0.65480182  0.76098725  0.67772177     0.36100
C1174       C  0.62500984  0.89728368  0.61309033     0.36000
N1175       N  0.66075725  0.73328171  0.69084665    -0.44200
N1176       N  0.61829925  0.92472172  0.60024326    -0.44200
C1177       C  0.05435891  0.36755496  0.95493161    -0.00600
C1178       C  0.02671018  0.38821018  0.94543751    -0.12500
C1179       C  0.97623803  0.36511692  0.95119309     0.01600
C1180       C  0.95270575  0.32061738  0.96697715    -0.04300
C1181       C  0.98144770  0.30231754  0.97815883    -0.12500
C1182       C  0.03127468  0.32496842  0.97240929     0.01500
H1183       H  0.04415862  0.42150673  0.93267533     0.14500
H1184       H  0.96330861  0.26253728  0.49107651     0.14500
C1185       C  0.05695795  0.29827179  0.48709490     0.36100
C1186       C  0.94951451  0.38698877  0.93964960     0.36000
N1187       N  0.07783186  0.28148653  0.49820450    -0.44200
N1188       N  0.92820351  0.40470896  0.93044928    -0.44200
C1189       C  0.31669818  0.36907856  0.92463566    -0.00600
C1190       C  0.29558925  0.32134752  0.93529006    -0.12500
C1191       C  0.31869257  0.29448185  0.93235562     0.01600
C1192       C  0.36460150  0.31509271  0.91838867    -0.00700
C1193       C  0.38802139  0.36421783  0.90986779    -0.12500
C1194       C  0.36447879  0.39143414  0.91292311     0.01500
H1195       H  0.25990394  0.30411903  0.94550525     0.14500
H1196       H  0.42376629  0.38072347  0.89981645     0.14500
C1197       C  0.38941625  0.44124679  0.90291575     0.36100
C1198       C  0.29424898  0.24579206  0.94444768     0.36000
N1199       N  0.40956350  0.48129587  0.89505675    -0.44200
N1200       N  0.27472640  0.20692376  0.95421882    -0.44200
C1201       C  0.35159612  0.57262636  0.96822839    -0.00600
C1202       C  0.39086457  0.59803850  0.94846828    -0.12500
C1203       C  0.43341031  0.64058214  0.95693623     0.01600
C1204       C  0.43797938  0.65783996  0.98596843    -0.00700
C1205       C  0.39969078  0.63183861  0.00605284    -0.12500
C1206       C  0.35667266  0.58987349  0.99748971     0.01500
H1207       H  0.38838064  0.58512926  0.92599434     0.14500
H1208       H  0.40286123  0.64511711  0.02853674     0.14500
C1209       C  0.31868201  0.56598634  0.01920090     0.36100
C1210       C  0.46755146  0.66873465  0.43117069     0.36000
N1211       N  0.28831883  0.54698404  0.03665650    -0.44200
N1212       N  0.49573537  0.69183427  0.41330626    -0.44200
C1213       C  0.05487604  0.34727708  0.69773652    -0.00600
C1214       C  0.03387038  0.37546583  0.70559007    -0.12500
C1215       C  0.98393760  0.35344748  0.71170472     0.01600
C1216       C  0.95475167  0.30232449  0.71124612    -0.00700
C1217       C  0.97531544  0.27426826  0.70277091    -0.12500
C1218       C  0.02452163  0.29617436  0.69528574     0.01500
H1219       H  0.05665812  0.41483075  0.70722280     0.14500
H1220       H  0.95236274  0.23487215  0.70131272     0.14500
C1221       C  0.04267028  0.26499445  0.68572708     0.36100
C1222       C  0.96377314  0.38375324  0.71919436     0.36000
N1223       N  0.05691407  0.23991329  0.67773633    -0.44200
N1224       N  0.94750690  0.40800578  0.72508331    -0.44200
C1225       C  0.37794435  0.32349141  0.65867992    -0.00600
C1226       C  0.36848148  0.33320404  0.68734998    -0.12500
C1227       C  0.33954605  0.35415683  0.69210058     0.01600
C1228       C  0.32090931  0.36730548  0.66778825    -0.00700
C1229       C  0.33315081  0.36047314  0.63905361    -0.12500
C1230       C  0.36046983  0.33767363  0.63435331     0.01500
H1231       H  0.38124633  0.32160954  0.70611927     0.14500
H1232       H  0.31899460  0.37041055  0.62019590     0.14500
C1233       C  0.36839493  0.32740367  0.60449188     0.36100
C1234       C  0.32886558  0.36087044  0.72209640     0.36000
N1235       N  0.37455234  0.31925688  0.58048177    -0.44200
N1236       N  0.32042010  0.36597801  0.74623225    -0.44200
C1237       C  0.18645330  0.36266567  0.84114424    -0.00600
C1238       C  0.14760779  0.36172338  0.82597030    -0.12500
C1239       C  0.14764375  0.36363186  0.79498265     0.01600
C1240       C  0.18648580  0.36540362  0.77880025    -0.00700
C1241       C  0.22240091  0.36095875  0.79387112    -0.12500
C1242       C  0.22273209  0.35961245  0.82478447     0.01500
H1243       H  0.12000290  0.36466685  0.83827282     0.14500
H1244       H  0.25232292  0.36247910  0.78166100     0.14500
C1245       C  0.26310380  0.35932900  0.83930211     0.36100
C1246       C  0.10973129  0.36828555  0.78057006     0.36000
N1247       N  0.29563033  0.35933532  0.85080415    -0.44200
N1248       N  0.07904474  0.37215784  0.76953110    -0.44200
C1249       C  0.19053431  0.37252140  0.58969482    -0.00600
C1250       C  0.22227090  0.36248485  0.57363491    -0.12500
C1251       C  0.22189912  0.36237902  0.54252003     0.01600
C1252       C  0.18958793  0.37287954  0.52731460    -0.00700
C1253       C  0.15491417  0.37820948  0.54358605    -0.12500
C1254       C  0.15514267  0.37806365  0.57444785     0.01500
H1255       H  0.24971895  0.35834207  0.58534657     0.14500
H1256       H  0.12911338  0.38521373  0.53209609     0.14500
C1257       C  0.12017878  0.38592365  0.59009171     0.36100
C1258       C  0.25761124  0.35575145  0.52691308     0.36000
N1259       N  0.09198914  0.39189645  0.60265663    -0.44200
N1260       N  0.28617836  0.35028597  0.51441354    -0.44200
C1261       C  0.35320076  0.56737266  0.71824723    -0.00600
C1262       C  0.39904333  0.57106675  0.71557228    -0.12500
C1263       C  0.44203164  0.61421121  0.72318574     0.01600
C1264       C  0.43964189  0.65500700  0.73295644    -0.00700
C1265       C  0.39424339  0.65184590  0.73507178    -0.12500
C1266       C  0.35119817  0.60857096  0.72824468     0.01500
H1267       H  0.40134942  0.54015255  0.70755873     0.14500
H1268       H  0.39228468  0.68303790  0.74296738     0.14500
C1269       C  0.30588489  0.60831017  0.73132464     0.36100
C1270       C  0.48822878  0.61632361  0.72004517     0.36000
N1271       N  0.26970507  0.60829186  0.73395425    -0.44200
N1272       N  0.52537327  0.61829876  0.71750701    -0.44200
C1273       C  0.30410001  0.95249039  0.86624777    -0.00600
C1274       C  0.34993506  0.97564552  0.88062709    -0.12500
C1275       C  0.37695042  0.02656411  0.88434568     0.01600
C1276       C  0.35796895  0.05517143  0.87380237    -0.00700
C1277       C  0.31332176  0.03245092  0.85859029    -0.12500
C1278       C  0.28652428  0.98206051  0.85455758     0.01500
H1279       H  0.36434218  0.95394202  0.88961538     0.14500
H1280       H  0.29892327  0.05441760  0.84990101     0.14500
C1281       C  0.24075461  0.96247027  0.83876879     0.36100
C1282       C  0.42258835  0.04828444  0.90032387     0.36000
N1283       N  0.20414690  0.94703564  0.82611899    -0.44200
N1284       N  0.45919094  0.06588442  0.91314395    -0.44200
C1285       C  0.04880498  0.68662555  0.84862166    -0.00600
C1286       C  0.02823020  0.64780934  0.82796804    -0.12500
C1287       C  0.97774854  0.62116207  0.82266432     0.01600
C1288       C  0.94716964  0.63331339  0.83819102    -0.00700
C1289       C  0.96699896  0.66918073  0.86028377    -0.12500
C1290       C  0.01701453  0.69540882  0.86593420     0.01500
H1291       H  0.05170850  0.63974622  0.81483589     0.14500
H1292       H  0.94329189  0.67800864  0.87250867     0.14500
C1293       C  0.03407607  0.73236243  0.88876365     0.36100
C1294       C  0.95873739  0.58426477  0.79980831     0.36000
N1295       N  0.04735702  0.76183493  0.90711604    -0.44200
N1296       N  0.94355108  0.55470061  0.78147140    -0.44200
C1297       C  0.22123647  0.65219205  0.88017448    -0.00600
C1298       C  0.26527861  0.65216767  0.87909695    -0.12500
C1299       C  0.26614754  0.60911039  0.88312847     0.01600
C1300       C  0.22249947  0.56541623  0.88919229    -0.00700
C1301       C  0.17841073  0.56526010  0.88998196    -0.12500
C1302       C  0.17725617  0.60794950  0.88503296     0.01500
H1303       H  0.29903447  0.68572686  0.87451834     0.14500
H1304       H  0.14501244  0.53195115  0.89553215     0.14500
C1305       C  0.13075289  0.60565414  0.88621275     0.36100
C1306       C  0.31254138  0.61125989  0.88219977     0.36000
N1307       N  0.09353114  0.60388002  0.88700726    -0.44200
N1308       N  0.34995228  0.61350268  0.88115949    -0.44200
C1309       C  0.43553022  0.78711263  0.80070727    -0.00600
C1310       C  0.39090314  0.74302160  0.80162083    -0.12500
C1311       C  0.34724292  0.74207566  0.80756972     0.01600
C1312       C  0.34786509  0.78596592  0.81414984    -0.00700
C1313       C  0.39262028  0.83009489  0.81322002    -0.12500
C1314       C  0.43596159  0.83112670  0.80596535     0.01500
H1315       H  0.38988238  0.70910592  0.79678328     0.14500
H1316       H  0.39378555  0.86403912  0.81816764     0.14500
C1317       C  0.48037470  0.87784574  0.80436476     0.36100
C1318       C  0.30269270  0.69530002  0.80701103     0.36000
N1319       N  0.51589019  0.91530099  0.80277430    -0.44200
N1320       N  0.26704761  0.65780218  0.80624153    -0.44200
C1321       C  0.31524483  0.95020504  0.63184360    -0.00600
C1322       C  0.29146558  0.97236233  0.64509023    -0.12500
C1323       C  0.31470876  0.02252265  0.64930246     0.01600
C1324       C  0.36343102  0.05254016  0.63986219    -0.00700
C1325       C  0.38830426  0.03019227  0.62800730    -0.12500
C1326       C  0.36460052  0.97936121  0.62393766     0.01500
H1327       H  0.25387207  0.95015112  0.65212341     0.14500
H1328       H  0.42557746  0.05255791  0.62056359     0.14500
C1329       C  0.39054569  0.95857069  0.60985349     0.36100
C1330       C  0.28667735  0.04154118  0.66295736     0.36000
N1331       N  0.41128202  0.94190995  0.59842820    -0.44200
N1332       N  0.26386400  0.05641077  0.67378474    -0.44200
C1333       C  0.05562933  0.69430416  0.58713497    -0.00600
C1334       C  0.03604156  0.71782754  0.57079113    -0.12500
C1335       C  0.98619320  0.69569701  0.56501784     0.01600
C1336       C  0.95403908  0.64838524  0.57586416    -0.00700
C1337       C  0.97387212  0.62404430  0.59139782    -0.12500
C1338       C  0.02419165  0.64643851  0.59696126     0.01500
H1339       H  0.05994949  0.75444706  0.56280126     0.14500
H1340       H  0.94990330  0.58773896  0.59984400     0.14500
C1341       C  0.04192856  0.62050138  0.61411143     0.36100
C1342       C  0.96960097  0.72391921  0.54909503     0.36000
N1343       N  0.05558571  0.59925531  0.62793977    -0.44200
N1344       N  0.95669021  0.74683730  0.53634836    -0.44200
C1345       C  0.21120798  0.82581640  0.51662012    -0.00600
C1346       C  0.24071205  0.84801854  0.00195428    -0.12500
C1347       C  0.24506082  0.84777846  0.97102515     0.01600
C1348       C  0.20432725  0.81615186  0.95330099    -0.00700
C1349       C  0.15968125  0.78580320  0.96698906    -0.12500
C1350       C  0.15596756  0.78408503  0.99791256     0.01500
H1351       H  0.27837093  0.82512955  0.51733105     0.14500
H1352       H  0.12855243  0.76073435  0.95358693     0.14500
C1353       C  0.13360506  0.82578295  0.51092331     0.36100
C1354       C  0.29238287  0.87834991  0.95804269     0.36000
N1355       N  0.10031531  0.82612872  0.52085418    -0.44200
N1356       N  0.33041261  0.90248309  0.94766679    -0.44200
C1357       C  0.17454047  0.81801685  0.76510871    -0.00600
C1358       C  0.21598119  0.85545245  0.75172900    -0.12500
C1359       C  0.22061388  0.85756471  0.72105324     0.01600
C1360       C  0.18256054  0.82204730  0.70293231    -0.00700
C1361       C  0.13841594  0.78830003  0.71623493    -0.12500
C1362       C  0.13436377  0.78579382  0.74725661     0.01500
H1363       H  0.24706213  0.87997093  0.76538001     0.14500
H1364       H  0.10904712  0.76089072  0.70270059     0.14500
C1365       C  0.09054030  0.74704713  0.76028163     0.36100
C1366       C  0.26733862  0.89337113  0.70924532     0.36000
N1367       N  0.05520185  0.71602835  0.77058747    -0.44200
N1368       N  0.30550036  0.92171953  0.70056314    -0.44200
C1369       C  0.21580667  0.56461516  0.65922460    -0.00600
C1370       C  0.26013629  0.60903014  0.66027933    -0.12500
C1371       C  0.26159947  0.65331302  0.65663562     0.01600
C1372       C  0.21815564  0.65370464  0.65128119    -0.00700
C1373       C  0.17371952  0.60932422  0.65028982    -0.12500
C1374       C  0.17207523  0.56492258  0.65468110     0.01500
H1375       H  0.29386514  0.60920047  0.66426567     0.14500
H1376       H  0.14051079  0.60934959  0.64511723     0.14500
C1377       C  0.12559695  0.52019237  0.65278854     0.36100
C1378       C  0.30854189  0.69755189  0.65670416     0.36000
N1379       N  0.08841236  0.48429094  0.65120176    -0.44200
N1380       N  0.34644154  0.73267334  0.65683717    -0.44200
C1381       C  0.43432644  0.77774681  0.55707162    -0.00600
C1382       C  0.43705216  0.80125560  0.58369697    -0.12500
C1383       C  0.39728812  0.80464821  0.59374979     0.01600
C1384       C  0.35275385  0.78253343  0.57736381    -0.00700
C1385       C  0.35049751  0.75930430  0.55056559    -0.12500
C1386       C  0.39059850  0.75689930  0.54028828     0.01500
H1387       H  0.47088023  0.81829699  0.59625179     0.14500
H1388       H  0.31694484  0.74202990  0.53776155     0.14500
C1389       C  0.38512437  0.73146493  0.51274590     0.36100
C1390       C  0.40423001  0.83200213  0.62066800     0.36000
N1391       N  0.38034967  0.71121236  0.49060018    -0.44200
N1392       N  0.40999723  0.85388488  0.64226943    -0.44200
loop_ 
_geom_bond_atom_site_label_1 
_geom_bond_atom_site_label_2 
_geom_bond_distance 
_geom_bond_site_symmetry_2 
_ccdc_geom_bond_type 
O1           C16   1.267       .  A
O1           Al9   1.924       .  S
C2           O12   1.270       .  A
C2            O3   1.255       .  A
C2          C664   1.485       .  S
O3           Al5   1.872       .  S
O4            C6   1.262       .  A
O4           Al5   1.916       .  S
Al5          O13   1.926       .  S
Al5          O15   1.859       .  S
Al5          O14   1.805       .  S
C6           O19   1.252       .  A
C6          C676   1.469       .  S
O7           C17   1.264       .  A
O7           Al9   1.926       .  S
O8           C21   1.269       .  A
O8          Al18   1.949       .  S
Al9          O22   1.883       .  S
Al9          O19   1.865       .  S
Al9          O14   1.800       .  S
O10          C17   1.255       .  A
O10         Al18   1.868       .  S
O11          C20   1.254       .  A
O11         Al18   1.859       .  S
O12         Al18   1.950       .  S
O13          C20   1.261       .  A
O14         Al18   1.790       .  S
O15          C16   1.251       .  A
C16         C688   1.488       .  S
C17         C637   1.486       .  S
C20         C625   1.483       .  S
C21          O22   1.254       .  A
C21         C649   1.486       .  S
O23          C38   1.265       .  A
O23         Al31   1.936       .  S
C24          O34   1.271       .  A
C24          O25   1.258       .  A
C24         C652   1.498       .  S
O25         Al27   1.879       .  S
O26          C28   1.271       .  A
O26         Al27   1.949       .  S
Al27         O35   1.943       .  S
Al27         O37   1.873       .  S
Al27         O36   1.771       .  S
C28          O41   1.258       .  A
C28         C601   1.477       .  S
O29          C39   1.264       .  A
O29         Al31   1.920       .  S
O30          C43   1.271       .  A
O30         Al40   1.965       .  S
Al31         O44   1.877       .  S
Al31         O41   1.875       .  S
Al31         O36   1.778       .  S
O32          C39   1.262       .  A
O32         Al40   1.893       .  S
O33          C42   1.259       .  A
O33         Al40   1.877       .  S
O34         Al40   1.966       .  S
O35          C42   1.268       .  A
O36         Al40   1.773       .  S
O37          C38   1.256       .  A
C38         C616   1.481       .  S
C39         C589   1.484       .  S
C42         C577   1.494       .  S
C43          O44   1.260       .  A
C43         C661   1.477       .  S
O45          C60   1.265       .  A
O45         Al53   1.934       .  S
C46          O56   1.267       .  A
C46          O47   1.258       .  A
C46         C544   1.476       .  S
O47         Al49   1.878       .  S
O48          C50   1.268       .  A
O48         Al49   1.934       .  S
Al49         O57   1.910       .  S
Al49         O59   1.883       .  S
Al49         O58   1.773       .  S
C50          O63   1.260       .  A
C50         C565   1.482       .  S
O51          C61   1.264       .  A
O51         Al53   1.926       .  S
O52          C65   1.271       .  A
O52         Al62   1.961       .  S
Al53         O66   1.881       .  S
Al53         O63   1.879       .  S
Al53         O58   1.778       .  S
O54          C61   1.261       .  A
O54         Al62   1.900       .  S
O55          C64   1.263       .  A
O55         Al62   1.899       .  S
O56         Al62   1.949       .  S
O57          C64   1.263       .  A
O58         Al62   1.778       .  S
O59          C60   1.255       .  A
C60         C673   1.473       .  S
C61         C532   1.475       .  S
C64         C517   1.479       .  S
C65          O66   1.261       .  A
C65         C553   1.476       .  S
O67          C82   1.264       .  A
O67         Al75   1.916       .  S
C68          O78   1.267       .  A
C68          O69   1.258       .  A
C68        C1252   1.483       .  S
O69         Al71   1.881       .  S
O70          C72   1.264       .  A
O70         Al71   1.919       .  S
Al71         O79   1.929       .  S
Al71         O81   1.874       .  S
Al71         O80   1.792       .  S
C72          O85   1.252       .  A
C72         C505   1.488       .  S
O73          C83   1.261       .  A
O73         Al75   1.913       .  S
O74          C87   1.266       .  A
O74         Al84   1.932       .  S
Al75         O88   1.882       .  S
Al75         O85   1.871       .  S
Al75         O80   1.803       .  S
O76          C83   1.260       .  A
O76         Al84   1.893       .  S
O77          C86   1.257       .  A
O77         Al84   1.892       .  S
O78         Al84   1.936       .  S
O79          C86   1.263       .  A
O80         Al84   1.792       .  S
O81          C82   1.256       .  A
C82         C604   1.469       .  S
C83         C493   1.490       .  S
C86         C481   1.493       .  S
C87          O88   1.256       .  A
C87         C541   1.475       .  S
O89         C104   1.265       .  A
O89         Al97   1.924       .  S
C90         O100   1.265       .  A
C90          O91   1.255       .  A
C90         C460   1.480       .  S
O91         Al93   1.891       .  S
O92          C94   1.269       .  A
O92         Al93   1.928       .  S
Al93        O797   1.927       .  S
Al93        O799   1.873       .  S
Al93        O798   1.795       .  S
C94         O803   1.257       .  A
C94         C508   1.485       .  S
O95         C105   1.262       .  A
O95         Al97   1.918       .  S
O96         C109   1.266       .  A
O96        Al106   1.934       .  S
Al97        O110   1.875       .  S
Al97        O107   1.861       .  S
Al97        O102   1.795       .  S
O98         C105   1.257       .  A
O98        Al106   1.885       .  S
O99         C108   1.259       .  A
O99        Al106   1.883       .  S
O100       Al802   1.934       .  S
O101        C108   1.266       .  A
O101       Al789   1.928   1_554  S
O102       Al106   1.792       .  S
O102       Al789   1.794   1_554  S
O103        C104   1.250       .  A
O103       Al789   1.861   1_554  S
C104        C685   1.474       .  S
C105        C436   1.483       .  S
Al106       O796   1.946   1_554  S
O107        C790   1.254   1_554  A
C108        C448   1.488       .  S
C109        O110   1.254       .  A
C109        C472   1.473       .  S
O111        C126   1.266       .  A
O111       Al119   1.938       .  S
C112        O122   1.269       .  A
C112        O113   1.260       .  A
C112        C469   1.480       .  S
O113       Al115   1.877       .  S
O114        C116   1.266       .  A
O114       Al115   1.930       .  S
Al115       O123   1.913       .  S
Al115       O125   1.873       .  S
Al115       O124   1.778       .  S
C116        O129   1.258       .  A
C116        C568   1.469       .  S
O117        C127   1.260       .  A
O117       Al119   1.916       .  S
O118        C131   1.271       .  A
O118       Al128   1.954       .  S
Al119       O132   1.882       .  S
Al119       O129   1.884       .  S
Al119       O124   1.785       .  S
O120        C127   1.259       .  A
O120       Al128   1.886       .  S
O121        C130   1.260       .  A
O121       Al128   1.892       .  S
O122       Al128   1.951       .  S
O123        C130   1.260       .  A
O124       Al128   1.774       .  S
O125        C126   1.257       .  A
C126        C613   1.471       .  S
C127        C412   1.481       .  S
C130        C421   1.475       .  S
C131        O132   1.261       .  A
C131        C457   1.479       .  S
O133        C148   1.266       .  A
O133       Al141   1.926       .  S
C134        O144   1.267       .  A
C134        O135   1.259       .  A
C134        C361   1.475       .  S
O135       Al137   1.881       .  S
O136        C138   1.269       .  A
O136       Al137   1.934       .  S
Al137       O145   1.932       .  S
Al137       O147   1.884       .  S
Al137       O146   1.783       .  S
C138        O151   1.256       .  A
C138        C385   1.479       .  S
O139        C149   1.264       .  A
O139       Al141   1.921       .  S
O140        C153   1.267       .  A
O140       Al150   1.949       .  S
Al141       O154   1.877       .  S
Al141       O151   1.875       .  S
Al141       O146   1.779       .  S
O142        C149   1.261       .  A
O142       Al150   1.889       .  S
O143        C152   1.261       .  A
O143       Al150   1.883       .  S
O144       Al150   1.948       .  S
O145        C152   1.266       .  A
O146       Al150   1.782       .  S
O147        C148   1.258       .  A
C148        C397   1.479       .  S
C149        C520   1.472       .  S
C152        C424   1.479       .  S
C153        O154   1.258       .  A
C153        C376   1.471       .  S
O155        C170   1.265       .  A
O155       Al163   1.930       .  S
C156        O166   1.265       .  A
C156        O157   1.250       .  A
C156        C373   1.481       .  S
O157       Al159   1.867       .  S
O158        C160   1.268       .  A
O158       Al159   1.927       .  S
Al159       O863   1.922   1_554  S
Al159       O865   1.851   1_554  S
Al159       O864   1.799   1_554  S
C160        O869   1.255   1_554  A
C160        C337   1.473       .  S
O161        C171   1.263       .  A
O161       Al163   1.920       .  S
O162        C175   1.264       .  A
O162       Al172   1.934       .  S
Al163       O176   1.870       .  S
Al163       O173   1.862       .  S
Al163       O168   1.795       .  S
O164        C171   1.263       .  A
O164       Al172   1.902       .  S
O165        C174   1.261       .  A
O165       Al172   1.887       .  S
O166       Al868   1.939   1_554  S
O167        C174   1.265       .  A
O167       Al855   1.925       .  S
O168       Al172   1.792       .  S
O168       Al855   1.801       .  S
O169        C170   1.247       .  A
O169       Al855   1.847       .  S
C170        C352   1.470       .  S
C171        C484   1.498       .  S
Al172       O862   1.940       .  S
O173        C856   1.255       .  A
C174        C445   1.484       .  S
C175        O176   1.253       .  A
C175        C364   1.478       .  S
O177        C192   1.270       .  A
O177       Al185   1.936       .  S
C178        O188   1.270       .  A
C178        O179   1.259       .  A
C178        C316   1.477       .  S
O179       Al181   1.875       .  S
O180        C182   1.265       .  A
O180       Al181   1.935       .  S
Al181       O189   1.928       .  S
Al181       O191   1.867       .  S
Al181       O190   1.781       .  S
C182        O195   1.258       .  A
C182        C325   1.476       .  S
O183        C193   1.267       .  A
O183       Al185   1.937       .  S
O184        C197   1.268       .  A
O184       Al194   1.955       .  S
Al185       O198   1.885       .  S
Al185       O195   1.890       .  S
Al185       O190   1.776       .  S
O186        C193   1.261       .  A
O186       Al194   1.887       .  S
O187        C196   1.262       .  A
O187       Al194   1.890       .  S
O188       Al194   1.959       .  S
O189        C196   1.265       .  A
O190       Al194   1.774       .  S
O191        C192   1.256       .  A
C192        C340   1.471       .  S
C193        C433   1.493       .  S
C196        C640   1.483       .  S
C197        O198   1.259       .  A
C197       C1000   1.482   1_554  S
O199        C214   1.264       .  A
O199       Al207   1.925       .  S
C200        O210   1.265       .  A
C200        O201   1.253       .  A
C200        C301   1.476       .  S
O201       Al203   1.875       .  S
O202        C204   1.267       .  A
O202       Al203   1.921       .  S
Al203       O211   1.917       .  S
Al203       O213   1.862       .  S
Al203       O212   1.793       .  S
C204        O217   1.255       .  A
C204        C292   1.490       .  S
O205        C215   1.263       .  A
O205       Al207   1.914       .  S
O206        C219   1.265       .  A
O206       Al216   1.932       .  S
Al207       O220   1.873       .  S
Al207       O217   1.879       .  S
Al207       O212   1.800       .  S
O208        C215   1.256       .  A
O208       Al216   1.874       .  S
O209        C218   1.258       .  A
O209       Al216   1.881       .  S
O210       Al216   1.935       .  S
O211        C218   1.263       .  A
O212       Al216   1.795       .  S
O213        C214   1.252       .  A
C214        C388   1.478       .  S
C215        C409   1.481       .  S
C218        C592   1.478       .  S
C219        O220   1.253       .  A
C219        C313   1.473       .  S
O221        C236   1.263       .  A
O221       Al229   1.928       .  S
C222        O232   1.264       .  A
C222        O223   1.255       .  A
C222        C280   1.483       .  S
O223       Al225   1.895       .  S
O224        C226   1.268       .  A
O224       Al225   1.923       .  S
Al225       O233   1.916       .  S
Al225       O235   1.865       .  S
Al225       O234   1.800       .  S
C226        O239   1.259       .  A
C226        C328   1.476       .  S
O227        C237   1.261       .  A
O227       Al229   1.906       .  S
O228        C241   1.266       .  A
O228       Al238   1.942       .  S
Al229       O242   1.879       .  S
Al229       O239   1.889       .  S
Al229       O234   1.795       .  S
O230        C237   1.258       .  A
O230       Al238   1.894       .  S
O231        C240   1.260       .  A
O231       Al238   1.888       .  S
O232       Al238   1.932       .  S
O233        C240   1.264       .  A
O234       Al238   1.792       .  S
O235        C236   1.253       .  A
C236        C400   1.478       .  S
C237        C529   1.470       .  S
C240        C628   1.490       .  S
C241        O242   1.256       .  A
C241        C265   1.490       .  S
O243        C258   1.267       .  A
O243       Al251   1.917       .  S
C244        O254   1.264       .  A
C244        O245   1.253       .  A
C244        C268   1.479       .  S
O245       Al247   1.879       .  S
O246        C248   1.266       .  A
O246       Al247   1.932       .  S
Al247       O255   1.915       .  S
Al247       O257   1.876       .  S
Al247       O256   1.798       .  S
C248        O261   1.252       .  A
C248        C289   1.492       .  S
O249        C259   1.266       .  A
O249       Al251   1.921       .  S
O250        C263   1.268       .  A
O250       Al260   1.958       .  S
Al251       O264   1.864       .  S
Al251       O261   1.867       .  S
Al251       O256   1.792       .  S
O252        C259   1.261       .  A
O252       Al260   1.887       .  S
O253        C262   1.260       .  A
O253       Al260   1.891       .  S
O254       Al260   1.933       .  S
O255        C262   1.262       .  A
O256       Al260   1.792       .  S
O257        C258   1.255       .  A
C258        C349   1.479       .  S
C259        C496   1.484       .  S
C262        C580   1.476       .  S
C263        O264   1.249       .  A
C263        C277   1.492       .  S
C265        C266   1.410       .  A
C265        C270   1.411       .  A
C266        C267   1.401       .  A
C266        H271   1.085       .  S
C267        C268   1.405       .  A
C267        C274   1.444       .  S
C268        C269   1.409       .  A
C269        C270   1.409       .  A
C269        H272   1.084       .  S
C270        C273   1.443       .  S
C273        N275   1.157       .  T
C274        N276   1.157       .  T
C277        C974   1.403       .  A
C277        C978   1.423       .  A
C278        C279   1.412       .  A
C278        C973   1.404   1_554  A
C278        H979   1.083   1_554  S
C279        C280   1.417       .  A
C279        C286   1.444       .  S
C280        C281   1.393       .  A
C281        C282   1.399       .  A
C281        H284   1.080       .  S
C282        C973   1.423   1_554  A
C282        C981   1.445   1_554  S
H283        C974   1.084       .  S
C285        C978   1.443       .  S
C285        N287   1.157       .  T
C286        N288   1.157       .  T
C289        C290   1.415       .  A
C289        C294   1.408       .  A
C290        C291   1.399       .  A
C290        H295   1.084       .  S
C291        C292   1.408       .  A
C291        C298   1.445       .  S
C292        C293   1.415       .  A
C293        C294   1.403       .  A
C293        H296   1.084       .  S
C294        C297   1.444       .  S
C297        N299   1.158       .  T
C298        N300   1.158       .  T
C301        C302   1.408       .  A
C301        C306   1.407       .  A
C302        C303   1.403       .  A
C302        H307   1.086       .  S
C303        C304   1.406       .  A
C303        C310   1.443       .  S
C304        C893   1.479       .  S
C304        C305   1.407       .  A
C305        C306   1.406       .  A
C305        H308   1.085       .  S
C306        C309   1.444       .  S
C309        N311   1.157       .  T
C310        N312   1.157       .  T
C313        C314   1.409       .  A
C313        C318   1.407       .  A
C314        C315   1.407       .  A
C314        H319   1.083       .  S
C315        C316   1.406       .  A
C315        C322   1.443       .  S
C316        C317   1.406       .  A
C317        C318   1.400       .  A
C317        H320   1.085       .  S
C318        C321   1.445       .  S
C321        N323   1.157       .  T
C322        N324   1.157       .  T
C325        C326   1.405       .  A
C325        C330   1.409       .  A
C326        C327   1.401       .  A
C326        H331   1.085       .  S
C327        C328   1.410       .  A
C327        C334   1.443       .  S
C328        C329   1.406       .  A
C329        C330   1.403       .  A
C329        H332   1.085       .  S
C330        C333   1.444       .  S
C333        N335   1.157       .  T
C334        N336   1.157       .  T
C337        C338   1.409   1_554  A
C337        C342   1.406       .  A
C338        C339   1.390   1_556  A
C338        H343   1.085       .  S
C339        C340   1.403       .  A
C339        C346   1.445   1_554  S
C340        C341   1.411       .  A
C341        C342   1.403       .  A
C341       H1040   1.084       .  S
C342       C1041   1.444       .  S
H344       C1037   1.084       .  S
C345       C1038   1.444       .  S
C345        N347   1.158       .  T
C346        N348   1.157       .  T
C349        C350   1.398       .  A
C349        C354   1.422       .  A
C350        C351   1.394       .  A
C350        H355   1.085       .  S
C351        C352   1.419       .  A
C351        C358   1.446       .  S
C352        C353   1.395       .  A
C353        C354   1.399       .  A
C353        H356   1.085       .  S
C354        C357   1.445       .  S
C357        N359   1.157       .  T
C358        N360   1.157       .  T
C361        C362   1.408       .  A
C361        C366   1.404       .  A
C362        C363   1.407       .  A
C362        H367   1.085       .  S
C363        C364   1.409       .  A
C363        C370   1.444       .  S
C364        C365   1.408       .  A
C365        C366   1.401       .  A
C365        H368   1.085       .  S
C366        C369   1.444       .  S
C369        N371   1.157       .  T
C370        N372   1.157       .  T
C373        C374   1.400       .  A
C373        C378   1.421       .  A
C374        C375   1.405       .  A
C374        H379   1.085       .  S
C375        C376   1.414       .  A
C375        C382   1.442       .  S
C376        C377   1.394       .  A
C377        C378   1.398       .  A
C377        H380   1.086       .  S
C378        C381   1.444       .  S
C381        N383   1.157       .  T
C382        N384   1.157       .  T
C385        C386   1.397       .  A
C385        C390   1.421       .  A
C386        C387   1.393       .  A
C386        H391   1.085       .  S
C387        C388   1.420       .  A
C387        C394   1.447       .  S
C388        C389   1.400       .  A
C389        C390   1.403       .  A
C389        H392   1.085       .  S
C390        C393   1.445       .  S
C393        N395   1.157       .  T
C394        N396   1.157       .  T
C397        C398   1.412       .  A
C397        C402   1.408       .  A
C398        C399   1.406       .  A
C398        H403   1.084       .  S
C399        C400   1.407       .  A
C399        C406   1.443       .  S
C400        C401   1.406       .  A
C401        C402   1.392       .  A
C401        H404   1.079       .  S
C402        C405   1.446       .  S
C405        N407   1.157       .  T
C406        N408   1.157       .  T
C409        C410   1.404       .  A
C409        C414   1.418       .  A
C410        C411   1.405       .  A
C410        H415   1.084       .  S
C411        C412   1.416       .  A
C411        C418   1.444       .  S
C412        C413   1.400       .  A
C413        C414   1.391       .  A
C413        H416   1.085       .  S
C414        C417   1.446       .  S
C417        N419   1.157       .  T
C418        N420   1.157       .  T
C421        C422   1.406       .  A
C421        C426   1.410       .  A
C422        C423   1.406   1_565  A
C422        H427   1.085       .  S
C423        C424   1.413       .  A
C423        C430   1.444       .  S
C424        C425   1.403       .  A
C425        C426   1.394   1_545  A
C425        H428   1.086       .  S
C426        C429   1.445       .  S
C429        N431   1.157       .  T
C430        N432   1.157       .  T
C433        C434   1.412       .  A
C433        C438   1.418       .  A
C434        C435   1.409       .  A
C434        H439   1.084       .  S
C435        C436   1.410       .  A
C435       C1138   1.443       .  S
C436        C437   1.403       .  A
C437        C438   1.395       .  A
C437        H440   1.086       .  S
C438        C441   1.446       .  S
C441        N443   1.157       .  T
C442       C1131   1.443       .  S
C442        N444   1.157       .  T
C445        C450   1.412       .  A
C445       C1142   1.402       .  A
C446        C447   1.387   1_545  A
C446       C1141   1.400   1_554  A
C446        H451   1.085       .  S
C447        C448   1.416       .  A
C447        C454   1.447       .  S
C448       C1145   1.411   1_554  A
C449        C450   1.413   1_565  A
C449       C1144   1.411       .  A
C449        H452   1.084       .  S
C450        C453   1.442       .  S
C453        N455   1.157       .  T
C454        N456   1.157       .  T
C457        C458   1.406       .  A
C457        C462   1.408       .  A
C458        C459   1.406       .  A
C458        H463   1.085       .  S
C459        C460   1.409       .  A
C459        C466   1.444       .  S
C460        C461   1.408       .  A
C461        C462   1.405       .  A
C461        H464   1.085       .  S
C462        C465   1.444       .  S
C465        N467   1.157       .  T
C466        N468   1.157       .  T
C469        C470   1.405       .  A
C469        C474   1.409       .  A
C470        C471   1.400       .  A
C470        H475   1.085       .  S
C471        C472   1.408       .  A
C471        C478   1.445       .  S
C472        C473   1.408       .  A
C473        C474   1.408       .  A
C473        H476   1.085       .  S
C474        C477   1.443       .  S
C477        N479   1.157       .  T
C478        N480   1.157       .  T
C481        C482   1.406       .  A
C481        C486   1.417       .  A
C482        C483   1.413   1_455  A
C482        H487   1.084       .  S
C483        C484   1.420       .  A
C483        C490   1.443       .  S
C484        C485   1.404       .  A
C485        C486   1.397   1_655  A
C485       H1184   1.085       .  S
C486       C1185   1.446       .  S
H488       C1181   1.085       .  S
C489       C1182   1.446       .  S
C489        N491   1.157       .  T
C490        N492   1.157       .  T
C493        C494   1.404       .  A
C493        C498   1.417       .  A
C494        C495   1.391       .  A
C494        H499   1.085       .  S
C495        C496   1.416       .  A
C495        C502   1.447       .  S
C496        C497   1.405       .  A
C497        C498   1.409       .  A
C497        H500   1.085       .  S
C498        C501   1.443       .  S
C501        N503   1.157       .  T
C502        N504   1.158       .  T
C505        C506   1.414       .  A
C505        C510   1.407       .  A
C506        C507   1.402       .  A
C506        H511   1.082       .  S
C507        C508   1.407       .  A
C507       C1210   1.445       .  S
C508        C509   1.412       .  A
C509        C510   1.397       .  A
C509        H512   1.084       .  S
C510        C513   1.445       .  S
C513        N515   1.157       .  T
C514       C1203   1.445       .  S
C514        N516   1.157       .  T
C517        C518   1.407       .  A
C517        C522   1.413       .  A
C518        C519   1.402   1_455  A
C518        H523   1.083       .  S
C519        C520   1.408       .  A
C519        C526   1.444       .  S
C520        C521   1.402       .  A
C521        C522   1.398   1_655  A
C521        H524   1.083       .  S
C522        C525   1.444       .  S
C525        N527   1.157       .  T
C526        N528   1.157       .  T
C529        C530   1.403       .  A
C529        C534   1.407       .  A
C530        C531   1.402       .  A
C530        H535   1.085       .  S
C531        C532   1.410       .  A
C531        C538   1.444       .  S
C532        C533   1.403       .  A
C533        C534   1.399       .  A
C533        H536   1.084       .  S
C534        C537   1.441       .  S
C537        N539   1.156       .  T
C538        N540   1.157       .  T
C541        C542   1.399       .  A
C541        C546   1.415       .  A
C542        C543   1.402       .  A
C542        H547   1.085       .  S
C543        C544   1.415       .  A
C543        C550   1.444       .  S
C544        C545   1.399       .  A
C545        C546   1.403       .  A
C545        H548   1.084       .  S
C546        C549   1.445       .  S
C549        N551   1.157       .  T
C550        N552   1.157       .  T
C553        C554   1.408       .  A
C553        C558   1.405       .  A
C554        C555   1.408       .  A
C554        H559   1.084       .  S
C555        C556   1.410       .  A
C555        C562   1.444       .  S
C556        C764   1.481   1_554  S
C556        C557   1.408       .  A
C557        C558   1.399       .  A
C557        H560   1.085       .  S
C558        C561   1.445       .  S
C561        N563   1.157       .  T
C562        N564   1.157       .  T
C565        C566   1.409       .  A
C565        C570   1.416       .  A
C566        C567   1.399       .  A
C566        H571   1.085       .  S
C567        C568   1.408       .  A
C567        C574   1.445       .  S
C568        C569   1.401       .  A
C569        C570   1.396       .  A
C569        H572   1.085       .  S
C570        C573   1.444       .  S
C573        N575   1.157       .  T
C574        N576   1.157       .  T
C577        C578   1.412       .  A
C577        C582   1.420       .  A
C578        C579   1.408   1_565  A
C578        H583   1.084       .  S
C579        C580   1.407       .  A
C579        C586   1.443       .  S
C580        C581   1.399       .  A
C581        C582   1.394   1_545  A
C581        H584   1.086       .  S
C582        C585   1.446       .  S
C585        N587   1.158       .  T
C586        N588   1.157       .  T
C589        C590   1.411       .  A
C589        C594   1.414       .  A
C590        C591   1.404   1_455  A
C590        H595   1.085       .  S
C591        C592   1.408       .  A
C591        C598   1.443       .  S
C592        C593   1.405       .  A
C593        C594   1.394   1_655  A
C593        H596   1.086       .  S
C594        C597   1.446       .  S
C597        N599   1.158       .  T
C598        N600   1.157       .  T
C601        C602   1.404       .  A
C601        C606   1.414       .  A
C602        C603   1.399       .  A
C602        H607   1.085       .  S
C603        C604   1.408       .  A
C603        C610   1.443       .  S
C604        C605   1.403       .  A
C605        C606   1.400       .  A
C605        H608   1.086       .  S
C606        C609   1.445       .  S
C609        N611   1.157       .  T
C610        N612   1.157       .  T
C613        C614   1.403       .  A
C613        C618   1.408       .  A
C614        C615   1.399       .  A
C614        H619   1.085       .  S
C615        C616   1.417       .  A
C615        C622   1.444       .  S
C616        C617   1.407       .  A
C617        C618   1.396       .  A
C617        H620   1.085       .  S
C618        C621   1.445       .  S
C621        N623   1.157       .  T
C622        N624   1.157       .  T
C625        C626   1.402       .  A
C625        C630   1.410       .  A
C626        C627   1.386   1_565  A
C626        H631   1.086       .  S
C627        C628   1.417       .  A
C627        C634   1.447       .  S
C628        C629   1.413       .  A
C629        C630   1.412   1_545  A
C629        H632   1.084       .  S
C630        C633   1.442       .  S
C633        N635   1.157       .  T
C634        N636   1.158       .  T
C637        C638   1.408       .  A
C637        C642   1.411       .  A
C638        C639   1.392   1_455  A
C638        H643   1.085       .  S
C639        C640   1.412       .  A
C639        C646   1.446       .  S
C640        C641   1.409       .  A
C641        C642   1.406   1_655  A
C641        H644   1.084       .  S
C642        C645   1.441       .  S
C645        N647   1.157       .  T
C646        N648   1.157       .  T
C649       C1346   1.403       .  A
C649       C1350   1.419   1_554  A
C650        C651   1.397       .  A
C650       C1345   1.399       .  A
C650       H1351   1.086       .  S
C651        C652   1.421       .  A
C651        C658   1.445       .  S
C652        C653   1.410       .  A
C653        C654   1.414       .  A
C653        H656   1.084       .  S
C654       C1345   1.412       .  A
C654       C1353   1.442       .  S
H655       C1346   1.085       .  S
C657       C1350   1.443   1_554  S
C657        N659   1.156       .  T
C658        N660   1.157       .  T
C661        C662   1.396       .  A
C661        C666   1.414       .  A
C662        C663   1.400       .  A
C662        H667   1.086       .  S
C663        C664   1.419       .  A
C663        C670   1.444       .  S
C664        C665   1.404       .  A
C665        C666   1.409       .  A
C665        H668   1.085       .  S
C666        C669   1.443       .  S
C669        N671   1.157       .  T
C670        N672   1.157       .  T
C673        C674   1.404       .  A
C673        C678   1.410       .  A
C674        C675   1.398       .  A
C674        H679   1.085       .  S
C675        C676   1.408       .  A
C675        C682   1.443       .  S
C676        C677   1.404       .  A
C677        C678   1.400       .  A
C677        H680   1.083       .  S
C678        C681   1.444       .  S
C681        N683   1.157       .  T
C682        N684   1.157       .  T
C685        C686   1.393       .  A
C685        C690   1.419       .  A
C686        C687   1.398       .  A
C686        H691   1.085       .  S
C687        C688   1.427       .  A
C687        C694   1.445       .  S
C688        C689   1.400       .  A
C689        C690   1.397       .  A
C689        H692   1.085       .  S
C690        C693   1.446       .  S
C693        N695   1.157   1_554  T
C694        N696   1.157       .  T
O697        C712   1.265       .  A
O697       Al705   1.921       .  S
C698        O708   1.270       .  A
C698        O699   1.256       .  A
C698       C1360   1.485       .  S
O699       Al701   1.872       .  S
O700        C702   1.263       .  A
O700       Al701   1.918       .  S
Al701       O709   1.922       .  S
Al701       O711   1.865       .  S
Al701       O710   1.799       .  S
C702        O715   1.253       .  A
C702       C1372   1.471       .  S
O703        C713   1.261       .  A
O703       Al705   1.920       .  S
O704        C717   1.267       .  A
O704       Al714   1.940       .  S
Al705       O718   1.881       .  S
Al705       O715   1.871       .  S
Al705       O710   1.797       .  S
O706        C713   1.255       .  A
O706       Al714   1.877       .  S
O707        C716   1.254       .  A
O707       Al714   1.870       .  S
O708       Al714   1.945       .  S
O709        C716   1.261       .  A
O710       Al714   1.799       .  S
O711        C712   1.251       .  A
C712       C1384   1.489       .  S
C713       C1333   1.481       .  S
C716       C1321   1.481       .  S
C717        O718   1.256       .  A
C717       C1345   1.480       .  S
O719        C734   1.262       .  A
O719       Al727   1.928       .  S
C720        O730   1.267       .  A
C720        O721   1.258       .  A
C720       C1348   1.484       .  S
O721       Al723   1.887       .  S
O722        C724   1.272       .  A
O722       Al723   1.945       .  S
Al723       O731   1.930       .  S
Al723       O733   1.895       .  S
Al723       O732   1.782       .  S
C724        O737   1.258       .  A
C724       C1297   1.471       .  S
O725        C735   1.262       .  A
O725       Al727   1.920       .  S
O726        C739   1.271       .  A
O726       Al736   1.964       .  S
Al727       O740   1.870       .  S
Al727       O737   1.864       .  S
Al727       O732   1.780       .  S
O728        C735   1.260       .  A
O728       Al736   1.895       .  S
O729        C738   1.259       .  A
O729       Al736   1.880       .  S
O730       Al736   1.945       .  S
O731        C738   1.266       .  A
O732       Al736   1.775       .  S
O733        C734   1.258       .  A
C734       C1312   1.488       .  S
C735       C1285   1.490       .  S
C738       C1273   1.494       .  S
C739        O740   1.260       .  A
C739       C1357   1.473       .  S
O741        C756   1.264       .  A
O741       Al749   1.927       .  S
C742        O752   1.266       .  A
C742        O743   1.257       .  A
C742       C1240   1.477       .  S
O743       Al745   1.882       .  S
O744        C746   1.268       .  A
O744       Al745   1.929       .  S
Al745       O753   1.912       .  S
Al745       O755   1.886       .  S
Al745       O754   1.775       .  S
C746        O759   1.262       .  A
C746       C1261   1.485       .  S
O747        C757   1.264       .  A
O747       Al749   1.927       .  S
O748        C761   1.269       .  A
O748       Al758   1.954       .  S
Al749       O762   1.886       .  S
Al749       O759   1.890       .  S
Al749       O754   1.779       .  S
O750        C757   1.264       .  A
O750       Al758   1.906       .  S
O751        C760   1.263       .  A
O751       Al758   1.898       .  S
O752       Al758   1.948       .  S
O753        C760   1.264       .  A
O754       Al758   1.781       .  S
O755        C756   1.255       .  A
C756       C1369   1.475       .  S
C757       C1228   1.480       .  S
C760       C1213   1.482       .  S
C761        O762   1.261       .  A
C761       C1249   1.475       .  S
O763        C778   1.264       .  A
O763       Al771   1.910       .  S
C764        O774   1.266       .  A
C764        O765   1.257       .  A
O765       Al767   1.883       .  S
O766        C768   1.263       .  A
O766       Al767   1.916       .  S
Al767       O775   1.922       .  S
Al767       O777   1.875       .  S
Al767       O776   1.793       .  S
C768        O781   1.251       .  A
C768       C1201   1.484       .  S
O769        C779   1.260       .  A
O769       Al771   1.910       .  S
O770        C783   1.267       .  A
O770       Al780   1.937       .  S
Al771       O784   1.874       .  S
Al771       O781   1.858       .  S
Al771       O776   1.798       .  S
O772        C779   1.261       .  A
O772       Al780   1.891       .  S
O773        C782   1.260       .  A
O773       Al780   1.896       .  S
O774       Al780   1.933       .  S
O775        C782   1.263       .  A
O776       Al780   1.788       .  S
O777        C778   1.256       .  A
C778       C1300   1.463       .  S
C779       C1189   1.487       .  S
C782       C1177   1.491       .  S
C783        O784   1.255       .  A
C783       C1237   1.478       .  S
O785        C800   1.265       .  A
O785       Al793   1.923       .  S
C786        O796   1.268       .  A
C786        O787   1.253       .  A
C786       C1156   1.486       .  S
O787       Al789   1.859       .  S
O788        C790   1.266       .  A
O788       Al789   1.917       .  S
C790       C1204   1.471       .  S
O791        C801   1.262       .  A
O791       Al793   1.917       .  S
O792        C805   1.266       .  A
O792       Al802   1.935       .  S
Al793       O806   1.886       .  S
Al793       O803   1.872       .  S
Al793       O798   1.790       .  S
O794        C801   1.258       .  A
O794       Al802   1.881       .  S
O795        C804   1.261       .  A
O795       Al802   1.891       .  S
O797        C804   1.266       .  A
O798       Al802   1.783       .  S
O799        C800   1.253       .  A
C800       C1381   1.475       .  S
C801       C1132   1.482       .  S
C804       C1144   1.489       .  S
C805        O806   1.256       .  A
C805       C1168   1.479       .  S
O807        C822   1.268       .  A
O807       Al815   1.946       .  S
C808        O818   1.267       .  A
C808        O809   1.259       .  A
C808       C1165   1.475       .  S
O809       Al811   1.881       .  S
O810        C812   1.267       .  A
O810       Al811   1.933       .  S
Al811       O819   1.918       .  S
Al811       O821   1.886       .  S
Al811       O820   1.777       .  S
C812        O825   1.259       .  A
C812       C1264   1.471       .  S
O813        C823   1.265       .  A
O813       Al815   1.934       .  S
O814        C827   1.267       .  A
O814       Al824   1.946       .  S
Al815       O828   1.884       .  S
Al815       O825   1.886       .  S
Al815       O820   1.779       .  S
O816        C823   1.261       .  A
O816       Al824   1.888       .  S
O817        C826   1.261       .  A
O817       Al824   1.894       .  S
O818       Al824   1.946       .  S
O819        C826   1.264       .  A
O820       Al824   1.777       .  S
O821        C822   1.258       .  A
C822       C1309   1.484       .  S
C823       C1108   1.490       .  S
C826       C1117   1.485       .  S
C827        O828   1.261       .  A
C827       C1153   1.474       .  S
O829        C844   1.268       .  A
O829       Al837   1.930       .  S
C830        O840   1.266       .  A
C830        O831   1.258       .  A
C830       C1057   1.471       .  S
O831       Al833   1.883       .  S
O832        C834   1.263       .  A
O832       Al833   1.912       .  S
Al833       O841   1.931       .  S
Al833       O843   1.883       .  S
Al833       O842   1.780       .  S
C834        O847   1.257       .  A
C834       C1081   1.481       .  S
O835        C845   1.267       .  A
O835       Al837   1.929       .  S
O836        C849   1.262       .  A
O836       Al846   1.936       .  S
Al837       O850   1.880       .  S
Al837       O847   1.887       .  S
Al837       O842   1.778       .  S
O838        C845   1.262       .  A
O838       Al846   1.884       .  S
O839        C848   1.261       .  A
O839       Al846   1.895       .  S
O840       Al846   1.948       .  S
O841        C848   1.266       .  A
O842       Al846   1.784       .  S
O843        C844   1.260       .  A
C844       C1093   1.473       .  S
C845       C1216   1.471       .  S
C848       C1120   1.469       .  S
C849        O850   1.256       .  A
C849       C1072   1.469       .  S
O851        C866   1.266       .  A
O851       Al859   1.933       .  S
C852        O862   1.266       .  A
C852        O853   1.248       .  A
C852       C1069   1.477       .  S
O853       Al855   1.850       .  S
O854        C856   1.267       .  A
O854       Al855   1.930       .  S
C856       C1033   1.479       .  S
O857        C867   1.263       .  A
O857       Al859   1.919       .  S
O858        C871   1.264       .  A
O858       Al868   1.928       .  S
Al859       O872   1.865       .  S
Al859       O869   1.857       .  S
Al859       O864   1.797       .  S
O860        C867   1.261       .  A
O860       Al868   1.894       .  S
O861        C870   1.262       .  A
O861       Al868   1.890       .  S
O863        C870   1.265       .  A
O864       Al868   1.791       .  S
O865        C866   1.248       .  A
C866       C1048   1.478       .  S
C867       C1180   1.496       .  S
C870       C1141   1.482       .  S
C871        O872   1.253       .  A
C871       C1060   1.474       .  S
O873        C888   1.270       .  A
O873       Al881   1.937       .  S
C874        O884   1.266       .  A
C874        O875   1.260       .  A
C874       C1012   1.475       .  S
O875       Al877   1.886       .  S
O876        C878   1.266       .  A
O876       Al877   1.935       .  S
Al877       O885   1.931       .  S
Al877       O887   1.872       .  S
Al877       O886   1.782       .  S
C878        O891   1.256       .  A
C878       C1021   1.478       .  S
O879        C889   1.268       .  A
O879       Al881   1.937       .  S
O880        C893   1.266       .  A
O880       Al890   1.948       .  S
Al881       O894   1.887       .  S
Al881       O891   1.880       .  S
Al881       O886   1.778       .  S
O882        C889   1.261       .  A
O882       Al890   1.883       .  S
O883        C892   1.263       .  A
O883       Al890   1.891       .  S
O884       Al890   1.948       .  S
O885        C892   1.267       .  A
O886       Al890   1.775       .  S
O887        C888   1.257       .  A
C888       C1036   1.475       .  S
C889       C1129   1.489       .  S
C892       C1336   1.488       .  S
C893        O894   1.259       .  A
O895        C910   1.266       .  A
O895       Al903   1.933       .  S
C896        O906   1.266       .  A
C896        O897   1.253       .  A
C896        C997   1.480       .  S
O897       Al899   1.879       .  S
O898        C900   1.266       .  A
O898       Al899   1.919       .  S
Al899       O907   1.911       .  S
Al899       O909   1.859       .  S
Al899       O908   1.793       .  S
C900        O913   1.253       .  A
C900        C988   1.485       .  S
O901        C911   1.265       .  A
O901       Al903   1.919       .  S
O902        C915   1.267       .  A
O902       Al912   1.943       .  S
Al903       O916   1.867       .  S
Al903       O913   1.868       .  S
Al903       O908   1.797       .  S
O904        C911   1.260       .  A
O904       Al912   1.890       .  S
O905        C914   1.259       .  A
O905       Al912   1.890       .  S
O906       Al912   1.940       .  S
O907        C914   1.261       .  A
O908       Al912   1.791       .  S
O909        C910   1.252       .  A
C910       C1084   1.478       .  S
C911       C1105   1.485       .  S
C914       C1288   1.470       .  S
C915        O916   1.252       .  A
C915       C1009   1.478       .  S
O917        C932   1.263       .  A
O917       Al925   1.930       .  S
C918        O928   1.263       .  A
C918        O919   1.252       .  A
C918        C976   1.486       .  S
O919       Al921   1.888       .  S
O920        C922   1.267       .  A
O920       Al921   1.921       .  S
Al921       O929   1.907       .  S
Al921       O931   1.869       .  S
Al921       O930   1.802       .  S
C922        O935   1.259       .  A
C922       C1024   1.471       .  S
O923        C933   1.261       .  A
O923       Al925   1.908       .  S
O924        C937   1.265       .  A
O924       Al934   1.937       .  S
Al925       O938   1.881       .  S
Al925       O935   1.887       .  S
Al925       O930   1.800       .  S
O926        C933   1.258       .  A
O926       Al934   1.890       .  S
O927        C936   1.263       .  A
O927       Al934   1.895       .  S
O928       Al934   1.934       .  S
O929        C936   1.264       .  A
O930       Al934   1.794       .  S
O931        C932   1.252       .  A
C932       C1096   1.493       .  S
C933       C1225   1.471       .  S
C936       C1324   1.487       .  S
C937        O938   1.255       .  A
C937        C961   1.490       .  S
O939        C954   1.267       .  A
O939       Al947   1.921       .  S
C940        O950   1.264       .  A
C940        O941   1.250       .  A
C940        C964   1.479       .  S
O941       Al943   1.867       .  S
O942        C944   1.268       .  A
O942       Al943   1.934       .  S
Al943       O951   1.919       .  S
Al943       O953   1.866       .  S
Al943       O952   1.801       .  S
C944        O957   1.251       .  A
C944        C985   1.485       .  S
O945        C955   1.263       .  A
O945       Al947   1.922       .  S
O946        C959   1.268       .  A
O946       Al956   1.958       .  S
Al947       O960   1.856       .  S
Al947       O957   1.845       .  S
Al947       O952   1.794       .  S
O948        C955   1.257       .  A
O948       Al956   1.872       .  S
O949        C958   1.260       .  A
O949       Al956   1.885       .  S
O950       Al956   1.942       .  S
O951        C958   1.265       .  A
O952       Al956   1.795       .  S
O953        C954   1.250       .  A
C954       C1045   1.488       .  S
C955       C1192   1.481       .  S
C958       C1276   1.479       .  S
C959        O960   1.250       .  A
C959        C973   1.491       .  S
C961        C962   1.411       .  A
C961        C966   1.409       .  A
C962        C963   1.404       .  A
C962        H967   1.084       .  S
C963        C964   1.407       .  A
C963        C970   1.445       .  S
C964        C965   1.409       .  A
C965        C966   1.407       .  A
C965        H968   1.085       .  S
C966        C969   1.442       .  S
C969        N971   1.157       .  T
C970        N972   1.157       .  T
C974        C975   1.411       .  A
C975        C976   1.419       .  A
C975        C982   1.444       .  S
C976        C977   1.393       .  A
C977        C978   1.400       .  A
C977        H980   1.083       .  S
C981        N983   1.157       .  T
C982        N984   1.157       .  T
C985        C986   1.415       .  A
C985        C990   1.405       .  A
C986        C987   1.394       .  A
C986        H991   1.084       .  S
C987        C988   1.405       .  A
C987        C994   1.445       .  S
C988        C989   1.416       .  A
C989        C990   1.401       .  A
C989        H992   1.084       .  S
C990        C993   1.444       .  S
C993        N995   1.157       .  T
C994        N996   1.157       .  T
C997        C998   1.410       .  A
C997       C1002   1.407       .  A
C998        C999   1.408       .  A
C998       H1003   1.081       .  S
C999       C1000   1.408       .  A
C999       C1006   1.444       .  S
C1000      C1001   1.406       .  A
C1001      C1002   1.404       .  A
C1001      H1004   1.085       .  S
C1002      C1005   1.444       .  S
C1005      N1007   1.157       .  T
C1006      N1008   1.158       .  T
C1009      C1010   1.410       .  A
C1009      C1014   1.407       .  A
C1010      C1011   1.403       .  A
C1010      H1015   1.084       .  S
C1011      C1012   1.405       .  A
C1011      C1018   1.444       .  S
C1012      C1013   1.406       .  A
C1013      C1014   1.405       .  A
C1013      H1016   1.085       .  S
C1014      C1017   1.442       .  S
C1017      N1019   1.157       .  T
C1018      N1020   1.157       .  T
C1021      C1022   1.405       .  A
C1021      C1026   1.413       .  A
C1022      C1023   1.400       .  A
C1022      H1027   1.085       .  S
C1023      C1024   1.408       .  A
C1023      C1030   1.442       .  S
C1024      C1025   1.404       .  A
C1025      C1026   1.402       .  A
C1025      H1028   1.085       .  S
C1026      C1029   1.444       .  S
C1029      N1031   1.157       .  T
C1030      N1032   1.157       .  T
C1033      C1034   1.410       .  A
C1033      C1038   1.408       .  A
C1034      C1035   1.392       .  A
C1034      H1039   1.085       .  S
C1035      C1036   1.404       .  A
C1035      C1042   1.445       .  S
C1036      C1037   1.412       .  A
C1037      C1038   1.405       .  A
C1041      N1043   1.158       .  T
C1042      N1044   1.157       .  T
C1045      C1046   1.398       .  A
C1045      C1050   1.428       .  A
C1046      C1047   1.394       .  A
C1046      H1051   1.085       .  S
C1047      C1048   1.421       .  A
C1047      C1054   1.446       .  S
C1048      C1049   1.395       .  A
C1049      C1050   1.402       .  A
C1049      H1052   1.085       .  S
C1050      C1053   1.445       .  S
C1053      N1055   1.158       .  T
C1054      N1056   1.157   1_556  T
C1057      C1058   1.406       .  A
C1057      C1062   1.405       .  A
C1058      C1059   1.403       .  A
C1058      H1063   1.087       .  S
C1059      C1060   1.406       .  A
C1059      C1066   1.444       .  S
C1060      C1061   1.408       .  A
C1061      C1062   1.399       .  A
C1061      H1064   1.087       .  S
C1062      C1065   1.444       .  S
C1065      N1067   1.157       .  T
C1066      N1068   1.157       .  T
C1069      C1070   1.398       .  A
C1069      C1074   1.422       .  A
C1070      C1071   1.403       .  A
C1070      H1075   1.085       .  S
C1071      C1072   1.414       .  A
C1071      C1078   1.441       .  S
C1072      C1073   1.393       .  A
C1073      C1074   1.396       .  A
C1073      H1076   1.086       .  S
C1074      C1077   1.445       .  S
C1077      N1079   1.157       .  T
C1078      N1080   1.156       .  T
C1081      C1082   1.399       .  A
C1081      C1086   1.420       .  A
C1082      C1083   1.391       .  A
C1082      H1087   1.086       .  S
C1083      C1084   1.419       .  A
C1083      C1090   1.447       .  S
C1084      C1085   1.401       .  A
C1085      C1086   1.405       .  A
C1085      H1088   1.085       .  S
C1086      C1089   1.444       .  S
C1089      N1091   1.157       .  T
C1090      N1092   1.158       .  T
C1093      C1094   1.407       .  A
C1093      C1098   1.402       .  A
C1094      C1095   1.406       .  A
C1094      H1099   1.085       .  S
C1095      C1096   1.413       .  A
C1095      C1102   1.443       .  S
C1096      C1097   1.413       .  A
C1097      C1098   1.395       .  A
C1097      H1100   1.082       .  S
C1098      C1101   1.446       .  S
C1101      N1103   1.158       .  T
C1102      N1104   1.157       .  T
C1105      C1106   1.405       .  A
C1105      C1110   1.416       .  A
C1106      C1107   1.408       .  A
C1106      H1111   1.084       .  S
C1107      C1108   1.418       .  A
C1107      C1114   1.443       .  S
C1108      C1109   1.403       .  A
C1109      C1110   1.394       .  A
C1109      H1112   1.085       .  S
C1110      C1113   1.446       .  S
C1113      N1115   1.157       .  T
C1114      N1116   1.157       .  T
C1117      C1118   1.410       .  A
C1117      C1122   1.416       .  A
C1118      C1119   1.400   1_565  A
C1118      H1123   1.086       .  S
C1119      C1120   1.405       .  A
C1119      C1126   1.444       .  S
C1120      C1121   1.400       .  A
C1121      C1122   1.399   1_545  A
C1121      H1124   1.088       .  S
C1122      C1125   1.444       .  S
C1125      N1127   1.157       .  T
C1126      N1128   1.157       .  T
C1129      C1130   1.411       .  A
C1129      C1134   1.416       .  A
C1130      C1131   1.408       .  A
C1130      H1135   1.084       .  S
C1131      C1132   1.410       .  A
C1132      C1133   1.403       .  A
C1133      C1134   1.392       .  A
C1133      H1136   1.085       .  S
C1134      C1137   1.446       .  S
C1137      N1139   1.157       .  T
C1138      N1140   1.157       .  T
C1141      C1146   1.412       .  A
C1142      C1143   1.389   1_545  A
C1142      H1147   1.085       .  S
C1143      C1144   1.416       .  A
C1143      C1150   1.447       .  S
C1145      C1146   1.414   1_565  A
C1145      H1148   1.083       .  S
C1146      C1149   1.443       .  S
C1149      N1151   1.157       .  T
C1150      N1152   1.157       .  T
C1153      C1154   1.408       .  A
C1153      C1158   1.404       .  A
C1154      C1155   1.410       .  A
C1154      H1159   1.084       .  S
C1155      C1156   1.410       .  A
C1155      C1162   1.442       .  S
C1156      C1157   1.410       .  A
C1157      C1158   1.393       .  A
C1157      H1160   1.086       .  S
C1158      C1161   1.445       .  S
C1161      N1163   1.157       .  T
C1162      N1164   1.157       .  T
C1165      C1166   1.406       .  A
C1165      C1170   1.406       .  A
C1166      C1167   1.405       .  A
C1166      H1171   1.085       .  S
C1167      C1168   1.408       .  A
C1167      C1174   1.443       .  S
C1168      C1169   1.409       .  A
C1169      C1170   1.404       .  A
C1169      H1172   1.085       .  S
C1170      C1173   1.445       .  S
C1173      N1175   1.157       .  T
C1174      N1176   1.157       .  T
C1177      C1178   1.406       .  A
C1177      C1182   1.416       .  A
C1178      C1179   1.412   1_455  A
C1178      H1183   1.084       .  S
C1179      C1180   1.419       .  A
C1179      C1186   1.443       .  S
C1180      C1181   1.404       .  A
C1181      C1182   1.395   1_655  A
C1185      N1187   1.157       .  T
C1186      N1188   1.157       .  T
C1189      C1190   1.402       .  A
C1189      C1194   1.418       .  A
C1190      C1191   1.388       .  A
C1190      H1195   1.085       .  S
C1191      C1192   1.415       .  A
C1191      C1198   1.447       .  S
C1192      C1193   1.405       .  A
C1193      C1194   1.410       .  A
C1193      H1196   1.084       .  S
C1194      C1197   1.443       .  S
C1197      N1199   1.157       .  T
C1198      N1200   1.157       .  T
C1201      C1202   1.416       .  A
C1201      C1206   1.409       .  A
C1202      C1203   1.396       .  A
C1202      H1207   1.084       .  S
C1203      C1204   1.401       .  A
C1204      C1205   1.409   1_556  A
C1205      C1206   1.396   1_554  A
C1205      H1208   1.085       .  S
C1206      C1209   1.445   1_556  S
C1209      N1211   1.158       .  T
C1210      N1212   1.157       .  T
C1213      C1214   1.409       .  A
C1213      C1218   1.413       .  A
C1214      C1215   1.403   1_455  A
C1214      H1219   1.086       .  S
C1215      C1216   1.407       .  A
C1215      C1222   1.444       .  S
C1216      C1217   1.402       .  A
C1217      C1218   1.397   1_655  A
C1217      H1220   1.087       .  S
C1218      C1221   1.444       .  S
C1221      N1223   1.157       .  T
C1222      N1224   1.157       .  T
C1225      C1226   1.402       .  A
C1225      C1230   1.407       .  A
C1226      C1227   1.401       .  A
C1226      H1231   1.084       .  S
C1227      C1228   1.411       .  A
C1227      C1234   1.442       .  S
C1228      C1229   1.407       .  A
C1229      C1230   1.403       .  A
C1229      H1232   1.085       .  S
C1230      C1233   1.443       .  S
C1233      N1235   1.157       .  T
C1234      N1236   1.157       .  T
C1237      C1238   1.399       .  A
C1237      C1242   1.417       .  A
C1238      C1239   1.405       .  A
C1238      H1243   1.085       .  S
C1239      C1240   1.415       .  A
C1239      C1246   1.442       .  S
C1240      C1241   1.397       .  A
C1241      C1242   1.401       .  A
C1241      H1244   1.082       .  S
C1242      C1245   1.445       .  S
C1245      N1247   1.157       .  T
C1246      N1248   1.157       .  T
C1249      C1250   1.407       .  A
C1249      C1254   1.405       .  A
C1250      C1251   1.409       .  A
C1250      H1255   1.084       .  S
C1251      C1252   1.410       .  A
C1251      C1258   1.443       .  S
C1252      C1253   1.408       .  A
C1253      C1254   1.397       .  A
C1253      H1256   1.085       .  S
C1254      C1257   1.445       .  S
C1257      N1259   1.157       .  T
C1258      N1260   1.157       .  T
C1261      C1262   1.408       .  A
C1261      C1266   1.418       .  A
C1262      C1263   1.402       .  A
C1262      H1267   1.085       .  S
C1263      C1264   1.409       .  A
C1263      C1270   1.445       .  S
C1264      C1265   1.400       .  A
C1265      C1266   1.397       .  A
C1265      H1268   1.085       .  S
C1266      C1269   1.445       .  S
C1269      N1271   1.157       .  T
C1270      N1272   1.157       .  T
C1273      C1274   1.413       .  A
C1273      C1278   1.419       .  A
C1274      C1275   1.407   1_565  A
C1274      H1279   1.084       .  S
C1275      C1276   1.408       .  A
C1275      C1282   1.443       .  S
C1276      C1277   1.402       .  A
C1277      C1278   1.394   1_545  A
C1277      H1280   1.086       .  S
C1278      C1281   1.446       .  S
C1281      N1283   1.158       .  T
C1282      N1284   1.157       .  T
C1285      C1286   1.413       .  A
C1285      C1290   1.416       .  A
C1286      C1287   1.404   1_455  A
C1286      H1291   1.083       .  S
C1287      C1288   1.405       .  A
C1287      C1294   1.443       .  S
C1288      C1289   1.400       .  A
C1289      C1290   1.394   1_655  A
C1289      H1292   1.082       .  S
C1290      C1293   1.445       .  S
C1293      N1295   1.157       .  T
C1294      N1296   1.157       .  T
C1297      C1298   1.403       .  A
C1297      C1302   1.413       .  A
C1298      C1299   1.398       .  A
C1298      H1303   1.085       .  S
C1299      C1300   1.409       .  A
C1299      C1306   1.443       .  S
C1300      C1301   1.401       .  A
C1301      C1302   1.397       .  A
C1301      H1304   1.086       .  S
C1302      C1305   1.445       .  S
C1305      N1307   1.157       .  T
C1306      N1308   1.157       .  T
C1309      C1310   1.403       .  A
C1309      C1314   1.414       .  A
C1310      C1311   1.401       .  A
C1310      H1315   1.085       .  S
C1311      C1312   1.418       .  A
C1311      C1318   1.445       .  S
C1312      C1313   1.406       .  A
C1313      C1314   1.403       .  A
C1313      H1316   1.085       .  S
C1314      C1317   1.444       .  S
C1317      N1319   1.157       .  T
C1318      N1320   1.157       .  T
C1321      C1322   1.404       .  A
C1321      C1326   1.409       .  A
C1322      C1323   1.390   1_565  A
C1322      H1327   1.086       .  S
C1323      C1324   1.416       .  A
C1323      C1330   1.446       .  S
C1324      C1325   1.411       .  A
C1325      C1326   1.408   1_545  A
C1325      H1328   1.084       .  S
C1326      C1329   1.442       .  S
C1329      N1331   1.157       .  T
C1330      N1332   1.158       .  T
C1333      C1334   1.404       .  A
C1333      C1338   1.408       .  A
C1334      C1335   1.394   1_455  A
C1334      H1339   1.084       .  S
C1335      C1336   1.415       .  A
C1335      C1342   1.445       .  S
C1336      C1337   1.411       .  A
C1337      C1338   1.405   1_655  A
C1337      H1340   1.084       .  S
C1338      C1341   1.442       .  S
C1341      N1343   1.157       .  T
C1342      N1344   1.158       .  T
C1346      C1347   1.408   1_554  A
C1347      C1348   1.415       .  A
C1347      C1354   1.444       .  S
C1348      C1349   1.398       .  A
C1349      C1350   1.404       .  A
C1349      H1352   1.085       .  S
C1353      N1355   1.157       .  T
C1354      N1356   1.157       .  T
C1357      C1358   1.394       .  A
C1357      C1362   1.414       .  A
C1358      C1359   1.395       .  A
C1358      H1363   1.086       .  S
C1359      C1360   1.420       .  A
C1359      C1366   1.445       .  S
C1360      C1361   1.404       .  A
C1361      C1362   1.410       .  A
C1361      H1364   1.085       .  S
C1362      C1365   1.443       .  S
C1365      N1367   1.157       .  T
C1366      N1368   1.157       .  T
C1369      C1370   1.403       .  A
C1369      C1374   1.411       .  A
C1370      C1371   1.397       .  A
C1370      H1375   1.085       .  S
C1371      C1372   1.409       .  A
C1371      C1378   1.443       .  S
C1372      C1373   1.404       .  A
C1373      C1374   1.403       .  A
C1373      H1376   1.082       .  S
C1374      C1377   1.444       .  S
C1377      N1379   1.157       .  T
C1378      N1380   1.157       .  T
C1381      C1382   1.396       .  A
C1381      C1386   1.417       .  A
C1382      C1383   1.400       .  A
C1382      H1387   1.085       .  S
C1383      C1384   1.426       .  A
C1383      C1390   1.445       .  S
C1384      C1385   1.401       .  A
C1385      C1386   1.397       .  A
C1385      H1388   1.085       .  S
C1386      C1389   1.445       .  S
C1389      N1391   1.157       .  T
C1390      N1392   1.158       .  T
