geometry optimzed in LAMMPS
_audit_creation_date              2020-11-30 
_audit_creation_method            'lammps2cif' 
_symmetry_space_group_name_H-M    'P1' 
_symmetry_Int_Tables_number       1 
_symmetry_cell_setting            triclinic 
loop_ 
_symmetry_equiv_pos_as_xyz 
  x,y,z 
_cell_length_a                    61.47043937 
_cell_length_b                    61.50458652041742 
_cell_length_c                    38.245721427502865 
_cell_angle_alpha                 90.08420656588649 
_cell_angle_beta                  90.234914600803 
_cell_angle_gamma                 119.92143973155056 
loop_ 
_atom_site_label 
_atom_site_type_symbol 
_atom_site_fract_x 
_atom_site_fract_y 
_atom_site_fract_z 
_atom_site_charge 
O1          O  0.08411597  0.44633147  0.18602448    -0.81600
C2          C  0.17124894  0.46426771  0.25338632     0.97700
O3          O  0.15904668  0.44560159  0.23273265    -0.70800
O4          O  0.11108926  0.41936988  0.24200239    -0.74300
Al5        Al  0.12980226  0.43630070  0.20272581     1.49000
C6          C  0.09508587  0.42060220  0.26077072     0.93000
O7          O  0.11674606  0.48588374  0.26462902    -0.80600
O8          O  0.14828372  0.50333211  0.17062737    -0.74100
Al9        Al  0.10254009  0.46568835  0.22384603     1.90100
O10         O  0.15057213  0.51392106  0.23924926    -0.73200
O11         O  0.17796045  0.48335325  0.18250567    -0.73000
O12         O  0.17028995  0.48434012  0.25060226    -0.78700
O13         O  0.14911582  0.44816573  0.16077133    -0.76900
O14         O  0.13012974  0.46478725  0.21246303    -1.13000
O15         O  0.10039851  0.42287090  0.17230737    -0.72200
C16         C  0.08428752  0.42969606  0.16732424     0.98500
C17         C  0.13432671  0.50813479  0.26259172     0.94900
Al18       Al  0.15915022  0.49361472  0.21084453     1.55600
O19         O  0.08902083  0.43716363  0.25528042    -0.76900
C20         C  0.17148425  0.46569313  0.16115935     0.99000
C21         C  0.12829580  0.50464422  0.16974970     0.93900
O22         O  0.11128640  0.49411169  0.19297744    -0.82200
O23         O  0.98768664  0.19065886  0.44465099    -0.81600
C24         C  0.02311054  0.20149207  0.30662403     0.97700
O25         O  0.01431591  0.18182311  0.32500560    -0.70800
O26         O  0.03650202  0.18828938  0.38603786    -0.74300
Al27       Al  0.00237103  0.17412941  0.37191959     1.49000
C28         C  0.04715266  0.20179990  0.41241419     0.93000
O29         O  0.03466015  0.25076886  0.39758110    -0.80600
O30         O  0.96316797  0.21075638  0.36942301    -0.74100
Al31       Al  0.01059151  0.21914885  0.41853821     1.90100
O32         O  0.00985882  0.24874777  0.35513785    -0.73200
O33         O  0.96882871  0.18274286  0.32106050    -0.73000
O34         O  0.01842313  0.21887424  0.31374635    -0.78700
O35         O  0.96805506  0.15515834  0.35740918    -0.76900
O36         O  0.00150898  0.20252825  0.37796405    -1.13000
O37         O  0.99064314  0.16096845  0.41720101    -0.72200
C38         C  0.98257133  0.16817889  0.44226154     0.98500
C39         C  0.02842691  0.26151475  0.37473209     0.94900
Al40       Al  0.99103556  0.21426936  0.34288215     1.55600
O41         O  0.03774570  0.21330979  0.42780581    -0.76900
C42         C  0.95881791  0.16045201  0.33164304     0.99000
C43         C  0.96497068  0.21985669  0.39975713     0.93900
O44         O  0.98467502  0.22746519  0.41798793    -0.82200
O45         O  0.85700300  0.31715287  0.47415887    -0.81600
C46         C  0.86700572  0.35552454  0.11017524     0.97700
O47         O  0.84704274  0.34648590  0.09196443    -0.70800
O48         O  0.85453502  0.36735066  0.03036808    -0.74300
Al49       Al  0.83959239  0.33361044  0.04480658     1.49000
C50         C  0.86795693  0.37760063  0.50406791     0.93000
O51         O  0.91553903  0.36512071  0.02301168    -0.80600
O52         O  0.87510165  0.29339234  0.05098124    -0.74100
Al53       Al  0.88492115  0.34064606  0.00065460     1.90100
O54         O  0.91355924  0.34025434  0.06521944    -0.73200
O55         O  0.84691310  0.30046160  0.09723546    -0.73000
O56         O  0.88365620  0.34965926  0.10414443    -0.78700
O57         O  0.81980350  0.29966436  0.05966202    -0.76900
O58         O  0.86768397  0.33207704  0.04041455    -1.13000
O59         O  0.82710138  0.32127306  0.99892614    -0.72200
C60         C  0.83457292  0.31232026  0.47518799     0.98500
C61         C  0.92611677  0.35935480  0.04666323     0.94900
Al62       Al  0.87879617  0.32179819  0.07639661     1.55600
O63         O  0.87919793  0.36780018  0.48893688    -0.76900
C64         C  0.82467525  0.29079920  0.08617075     0.99000
C65         C  0.88520387  0.29508477  0.02156477     0.93900
O66         O  0.89353266  0.31481065  0.00334376    -0.82200
O67         O  0.88950496  0.56911151  0.25012230    -0.81600
C68         C  0.86025086  0.50315216  0.36180198     0.97700
O69         O  0.86444163  0.52552009  0.36553899    -0.70800
O70         O  0.90655627  0.55630838  0.33647126    -0.74300
Al71       Al  0.87448435  0.55192402  0.33047077     1.49000
C72         C  0.92277680  0.55712925  0.31588475     0.93000
O73         O  0.88686580  0.50657269  0.25742581    -0.80600
O74         O  0.82447935  0.50998715  0.25869498    -0.74100
Al75       Al  0.88644222  0.53765637  0.25729691     1.90100
O76         O  0.84696953  0.48258392  0.26589351    -0.73200
O77         O  0.82014398  0.51035138  0.32772447    -0.73000
O78         O  0.85121747  0.49103337  0.33370667    -0.78700
O79         O  0.84283049  0.55094495  0.32997958    -0.76900
O80         O  0.86670410  0.53058630  0.29457606    -1.13000
O81         O  0.88692653  0.58203610  0.30245919    -0.72200
C82         C  0.89087777  0.58592943  0.27004204     0.98500
C83         C  0.86744630  0.48535484  0.25537082     0.94900
Al84       Al  0.83825669  0.50114233  0.29644590     1.55600
O85         O  0.91765468  0.55163298  0.28380579    -0.76900
C86         C  0.82218394  0.53125263  0.33463224     0.99000
C87         C  0.83494528  0.51800120  0.22936340     0.93900
O88         O  0.85820393  0.52561306  0.22477625    -0.82200
O89         O  0.11847612  0.69184109  0.50097184    -0.81600
C90         C  0.14808471  0.64879343  0.39701282     0.97700
O91         O  0.14419205  0.66690523  0.39067797    -0.70800
O92         O  0.10113983  0.65732448  0.41617193    -0.74300
Al93       Al  0.13352461  0.68478642  0.42250575     1.49000
C94         C  0.08400666  0.64403822  0.43725046     0.93000
O95         O  0.11620687  0.62972279  0.00036752    -0.80600
O96         O  0.18068001  0.69297365  0.49987338    -0.74100
Al97       Al  0.11894745  0.66196674  0.49752634     1.90100
O98         O  0.15593513  0.64255094  0.49450025    -0.73200
O99         O  0.18732680  0.69624635  0.43178018    -0.73000
O100        O  0.15524787  0.64601353  0.42676166    -0.78700
O101        O  0.16558204  0.71483945  0.42308089    -0.76900
O102        O  0.13967979  0.67219341  0.46107387    -1.13000
O103        O  0.12111249  0.70417301  0.44670610    -0.72200
C104        C  0.11783806  0.70646003  0.47883344     0.98500
C105        C  0.13446858  0.62609512  0.00394962     0.94900
Al106      Al  0.16733737  0.66969508  0.46295977     1.55600
O107        O  0.08829359  0.64566720  0.46986043    -0.76900
C108        C  0.18617729  0.71515724  0.42213786     0.99000
C109        C  0.16964363  0.69180931  0.02820156     0.93900
O110        O  0.14610931  0.67729637  0.03168831    -0.82200
O111        O  0.99451612  0.76508316  0.16615821    -0.81600
C112        C  0.01369790  0.82787881  0.05482730     0.97700
O113        O  0.99686270  0.80460446  0.05376158    -0.70800
O114        O  0.00940753  0.77389258  0.08048653    -0.74300
Al115      Al  0.98296384  0.77919610  0.09087394     1.49000
C116        C  0.03003576  0.77902605  0.09395233     0.93000
O117        O  0.04655831  0.83121390  0.15382540    -0.80600
O118        O  0.97856497  0.82023296  0.16390706    -0.74100
Al119      Al  0.01809682  0.79833470  0.15645822     1.90100
O120        O  0.02666734  0.85172607  0.15046111    -0.73200
O121        O  0.96920539  0.82002582  0.09568733    -0.73000
O122        O  0.01812206  0.84100876  0.08242336    -0.78700
O123        O  0.95232457  0.77973142  0.09535842    -0.76900
O124        O  0.99982535  0.80235196  0.12357703    -1.13000
O125        O  0.96779534  0.75095863  0.12266694    -0.72200
C126        C  0.97495094  0.74790859  0.15238508     0.98500
C127        C  0.04616214  0.85119180  0.15772397     0.94900
Al128      Al  0.99829118  0.83055713  0.12315873     1.55600
O129        O  0.03622118  0.78891013  0.12407654    -0.76900
C130        C  0.95056212  0.79887139  0.09032156     0.99000
C131        C  0.98339720  0.81189644  0.19152354     0.93900
O132        O  0.00114457  0.80668457  0.19303970    -0.82200
O133        O  0.33697287  0.86421183  0.28581020    -0.81600
C134        C  0.35671029  0.85708348  0.14864118     0.97700
O135        O  0.35918935  0.84853545  0.17753179    -0.70800
O136        O  0.36585675  0.84921962  0.24573984    -0.74300
Al137      Al  0.33753393  0.83978522  0.21603832     1.49000
C138        C  0.38453449  0.87026750  0.25269618     0.93000
O139        O  0.36950900  0.92081125  0.22345626    -0.80600
O140        O  0.30914013  0.89120453  0.20544736    -0.74100
Al141      Al  0.35251300  0.89058573  0.25102912     1.90100
O142        O  0.35397515  0.90806506  0.17104281    -0.73200
O143        O  0.29427213  0.84645894  0.17907566    -0.73000
O144        O  0.34108205  0.86482018  0.14480224    -0.78700
O145        O  0.30919432  0.82140027  0.18631937    -0.76900
O146        O  0.33857484  0.86939357  0.21504162    -1.13000
O147        O  0.31565792  0.82943371  0.25454978    -0.72200
C148        C  0.31943427  0.84153382  0.28280699     0.98500
C149        C  0.36914071  0.92492965  0.19117560     0.94900
Al150      Al  0.32566919  0.87694580  0.17831028     1.55600
O151        O  0.38302138  0.88976852  0.24944784    -0.76900
C152        C  0.29179465  0.82502595  0.17635949     0.97200
C153        C  0.30975561  0.89636958  0.23764684     0.93900
O154        O  0.32496445  0.89485577  0.25801108    -0.82200
O155        O  0.18972801  0.99659083  0.30847869    -0.81600
C156        C  0.17994869  0.01482948  0.44576306     0.97700
O157        O  0.17099677  0.01611751  0.41657061    -0.70800
O158        O  0.17286927  0.02350348  0.34850897    -0.74300
Al159      Al  0.16427503  0.99511203  0.37771712     1.49000
C160        C  0.19348139  0.04263771  0.34116567     0.93000
O161        O  0.24593502  0.03020798  0.37101035    -0.80600
O162        O  0.21966076  0.97192805  0.39116875    -0.74100
Al163      Al  0.21565747  0.01233022  0.34385750     1.90100
O164        O  0.23435870  0.01718158  0.42440659    -0.73200
O165        O  0.17411098  0.95449011  0.41780513    -0.73000
O166        O  0.19006061  0.00133689  0.45016048    -0.78700
O167        O  0.14683586  0.96612864  0.40599599    -0.76900
O168        O  0.19476407  0.99816968  0.37988656    -1.13000
O169        O  0.15532372  0.97355993  0.33888355    -0.72200
C170        C  0.16744630  0.97841488  0.31074195     0.98500
C171        C  0.25069756  0.03174095  0.40328898     0.94900
Al172      Al  0.20373062  0.98713823  0.41752501     1.55600
O173        O  0.21364547  0.04236491  0.34538322    -0.76900
C174        C  0.15174992  0.94994639  0.41743438     0.99000
C175        C  0.22386273  0.97136619  0.35883979     0.93900
O176        O  0.22053959  0.98491457  0.33741975    -0.82200
O177        O  0.47087848  0.14238479  0.46861695    -0.81600
C178        C  0.49770912  0.14275395  0.10448109     0.97700
O179        O  0.50902880  0.14963616  0.07554382    -0.70800
O180        O  0.51469377  0.15083790  0.00720703    -0.74300
Al181      Al  0.49943911  0.16308926  0.03821728     1.49000
C182        C  0.50918143  0.12916251  0.49793420     0.93000
O183        O  0.44308710  0.08525441  0.03026310    -0.80600
O184        O  0.41864080  0.12229476  0.04931105    -0.74100
Al185      Al  0.45805322  0.11535210  0.00233826     1.90100
O186        O  0.44106418  0.09895675  0.08241906    -0.73200
O187        O  0.45389223  0.16550163  0.07475226    -0.73000
O188        O  0.47609942  0.14036662  0.10890506    -0.78700
O189        O  0.49437456  0.18411610  0.06963766    -0.76900
O190        O  0.46848037  0.13657435  0.03861468    -1.13000
O191        O  0.49093478  0.17724665  0.00051785    -0.72200
C192        C  0.48056571  0.16602752  0.47219442     0.98500
C193        C  0.43849008  0.08155022  0.06259047     0.94900
Al194      Al  0.44900755  0.13215820  0.07557146     1.55600
O195        O  0.48703868  0.11151401  0.50091599    -0.76900
C196        C  0.47511188  0.18460070  0.07904922     0.99000
C197        C  0.41286523  0.11681296  0.01751610     0.93900
O198        O  0.42769964  0.11506494  0.99688988    -0.82200
O199        O  0.76569255  0.98522906  0.08383559    -0.81600
C200        C  0.83471393  0.02021879  0.19267350     0.97700
O201        O  0.81190874  0.00332297  0.19780422    -0.70800
O202        O  0.78162190  0.01646436  0.17041471    -0.74300
Al203      Al  0.78392322  0.98770813  0.16410030     1.49000
C204        C  0.78022731  0.03149668  0.14973757     0.93000
O205        O  0.82880271  0.04347574  0.09244574    -0.80600
O206        O  0.82009409  0.97477242  0.09033012    -0.74100
Al207      Al  0.79732834  0.01305289  0.09074041     1.90100
O208        O  0.85105100  0.02500206  0.09490363    -0.73200
O209        O  0.82283678  0.97141640  0.15906847    -0.73000
O210        O  0.84539526  0.02205759  0.16369133    -0.78700
O211        O  0.78265270  0.95618674  0.16373538    -0.76900
O212        O  0.80419929  0.99968672  0.12734877    -1.13000
O213        O  0.75300507  0.97103156  0.13682072    -0.72200
C214        C  0.74896735  0.97038134  0.10420112     0.98500
C215        C  0.84907891  0.04377820  0.08707630     0.94900
Al216      Al  0.83245962  0.99840023  0.12713396     1.55600
O217        O  0.78429138  0.03090318  0.11743902    -0.76900
C218        C  0.80160024  0.95378894  0.16751560     0.99000
C219        C  0.81281369  0.97862360  0.06115071     0.93900
O220        O  0.80845148  0.99667961  0.05687758    -0.82200
O221        O  0.56995321  0.89673380  0.50207436    -0.81600
C222        C  0.50643738  0.85408967  0.38995352     0.97700
O223        O  0.53020619  0.86329824  0.38821133    -0.70800
O224        O  0.55936612  0.90648968  0.41655380    -0.74300
Al225      Al  0.55626329  0.87505760  0.42405385     1.49000
C226        C  0.55435484  0.92109093  0.43293372     0.93000
O227        O  0.50298990  0.88113194  0.98986666    -0.80600
O228        O  0.51914941  0.82659346  0.49607297    -0.74100
Al229      Al  0.53659448  0.88693325  0.49270552     1.90100
O230        O  0.48492108  0.84077428  0.48679345    -0.73200
O231        O  0.51840808  0.81897494  0.42780616    -0.73000
O232        O  0.49405043  0.84402629  0.41758931    -0.78700
O233        O  0.55818890  0.84498595  0.42442681    -0.76900
O234        O  0.53348353  0.86622050  0.45785465    -1.13000
O235        O  0.58488920  0.88824216  0.45537057    -0.72200
C236        C  0.58746726  0.89592707  0.48664282     0.98500
C237        C  0.48418837  0.86004890  0.99524632     0.94900
Al238      Al  0.50662301  0.83551527  0.45707434     1.55600
O239        O  0.54539255  0.91577457  0.46343469    -0.76900
C240        C  0.53994540  0.82332699  0.42025314     0.99000
C241        C  0.52633275  0.83887439  0.02450316     0.93900
O242        O  0.52905913  0.86082060  0.02767902    -0.82200
O243        O  0.68275854  0.11328595  0.24410155    -0.81600
C244        C  0.64422160  0.14126281  0.35744441     0.97700
O245        O  0.66092177  0.13497942  0.36078645    -0.70800
O246        O  0.64658088  0.09299879  0.32918178    -0.74300
Al247      Al  0.67612321  0.12382366  0.32587897     1.49000
C248        C  0.63307633  0.07738656  0.30630798     0.93000
O249        O  0.62209056  0.11493865  0.25136228    -0.80600
O250        O  0.68877521  0.17626347  0.25674487    -0.74100
Al251      Al  0.65346817  0.11543144  0.25061775     1.90100
O252        O  0.63819786  0.15489058  0.26158103    -0.73200
O253        O  0.69184476  0.17873103  0.32527973    -0.73000
O254        O  0.64139237  0.15021428  0.32920071    -0.78700
O255        O  0.70791740  0.15423882  0.32793486    -0.76900
O256        O  0.66488235  0.13368975  0.28971118    -1.13000
O257        O  0.69252497  0.11001357  0.29827015    -0.72200
C258        C  0.69537894  0.10872189  0.26576229     0.98500
C259        C  0.62014213  0.13435675  0.25144959     0.94900
Al260      Al  0.66505907  0.16259028  0.29282237     1.55600
O261        O  0.63599924  0.08312145  0.27416853    -0.76900
C262        C  0.70956985  0.17515744  0.33373796     0.99000
C263        C  0.68638680  0.16699574  0.22648519     0.93900
O264        O  0.66937621  0.14457294  0.21965364    -0.82200
O265        O  0.44512413  0.34815988  0.33376816    -0.81600
C266        C  0.48349821  0.31833776  0.22371504     0.97700
O267        O  0.47670234  0.33477523  0.22076500    -0.70800
O268        O  0.43362187  0.32394754  0.24568893    -0.74300
Al269      Al  0.46556952  0.35059873  0.25535922     1.49000
C270        C  0.41638083  0.30695445  0.26315734     0.93000
O271        O  0.44928975  0.28977821  0.32292421    -0.80600
O272        O  0.51098097  0.35550451  0.33241894    -0.74100
Al273      Al  0.44922928  0.32062831  0.32539352     1.90100
O274        O  0.48965226  0.30580380  0.32024587    -0.73200
O275        O  0.52040403  0.36389637  0.26455584    -0.73000
O276        O  0.49128061  0.31455481  0.25247429    -0.78700
O277        O  0.49704775  0.38082728  0.25852464    -0.76900
O278        O  0.47142662  0.33541412  0.29098686    -1.13000
O279        O  0.45279625  0.36794358  0.28386607    -0.72200
C280        C  0.44618206  0.36558092  0.31558733     0.98500
C281        C  0.46835700  0.28764646  0.32710145     0.94900
Al282      Al  0.50037768  0.33499569  0.29232427     1.55600
O283        O  0.41963951  0.30434425  0.29525897    -0.76900
C284        C  0.51802373  0.38226157  0.25593444     0.99000
C285        C  0.49864868  0.35136982  0.36040362     0.93900
O286        O  0.47527873  0.33518759  0.36178621    -0.82200
O287        O  0.23408679  0.21499570  0.17423144    -0.81600
C288        C  0.16798623  0.19095818  0.06218671     0.97700
O289        O  0.18939038  0.19271255  0.05812092    -0.70800
O290        O  0.22189773  0.23437796  0.08703706    -0.74300
Al291      Al  0.21606245  0.20212078  0.09347284     1.49000
C292        C  0.22569371  0.25157926  0.10803273     0.93000
O293        O  0.17623197  0.22053557  0.16551254    -0.80600
O294        O  0.17159512  0.15416660  0.16530320    -0.74100
Al295      Al  0.20469000  0.21599819  0.16680967     1.90100
O296        O  0.14827471  0.18132998  0.15793231    -0.73200
O297        O  0.17206362  0.14926385  0.09645021    -0.73000
O298        O  0.15628559  0.18350248  0.09061635    -0.78700
O299        O  0.21293578  0.16982602  0.09511638    -0.76900
O300        O  0.19547849  0.19603276  0.12950908    -1.13000
O301        O  0.24672667  0.21399100  0.12121010    -0.72200
C302        C  0.25080316  0.21688780  0.15385689     0.98500
C303        C  0.15386362  0.20316690  0.16705521     0.94900
Al304      Al  0.16469314  0.16931302  0.12766045     1.55600
O305        O  0.22171125  0.24723695  0.14049107    -0.76900
C306        C  0.19248824  0.15001060  0.08971324     0.99000
C307        C  0.18026799  0.16422205  0.19475128     0.93900
O308        O  0.18986700  0.18781336  0.19952450    -0.82200
O309        O  0.35652918  0.44798022  0.42312892    -0.81600
C310        C  0.31045733  0.47505831  0.02665981     0.97700
O311        O  0.32892444  0.47172991  0.03357657    -0.70800
O312        O  0.31874195  0.42871611  0.50741632    -0.74300
Al313      Al  0.34672922  0.46044458  0.50196651     1.49000
C314        C  0.30742934  0.41135211  0.48561104     0.93000
O315        O  0.29320424  0.44224236  0.42377325    -0.80600
O316        O  0.35580642  0.50803208  0.42546987    -0.74100
Al317      Al  0.32582481  0.44649645  0.42632142     1.90100
O318        O  0.30506825  0.48194211  0.42824253    -0.73200
O319        O  0.35831437  0.51413061  0.49427099    -0.73000
O320        O  0.30760472  0.48158403  0.49653395    -0.78700
O321        O  0.37680596  0.49202384  0.00155722    -0.76900
O322        O  0.33488851  0.46685127  0.46316634    -1.13000
O323        O  0.36585711  0.44703467  0.47815341    -0.72200
C324        C  0.36955776  0.44520063  0.44590247     0.98500
C325        C  0.28930191  0.46010177  0.41829755     0.94900
Al326      Al  0.33193395  0.49417722  0.46138434     1.55600
O327        O  0.31079500  0.41553949  0.45308220    -0.76900
C328        C  0.37712276  0.51255636  0.00398859     0.99000
C329        C  0.35484783  0.49720205  0.39688681     0.93900
O330        O  0.34008141  0.47377000  0.39268760    -0.82200
O331        O  0.52369393  0.66511945  0.13948874    -0.81600
C332        C  0.52324738  0.68697569  0.27801916     0.97700
O333        O  0.51568465  0.69171834  0.24978914    -0.70800
O334        O  0.51236727  0.69759194  0.18228463    -0.74300
Al335      Al  0.50306448  0.66975440  0.21126702     1.49000
C336        C  0.53286607  0.71500000  0.17174929     0.93000
O337        O  0.58203061  0.69807942  0.20066734    -0.80600
O338        O  0.54990802  0.63536645  0.21618200    -0.74100
Al339      Al  0.55151018  0.68100886  0.17270333     1.90100
O340        O  0.56976037  0.67991530  0.25183330    -0.73200
O341        O  0.50528007  0.62261218  0.24370680    -0.73000
O342        O  0.52774207  0.66893662  0.28037119    -0.78700
O343        O  0.48430634  0.64236067  0.24123062    -0.76900
O344        O  0.53102009  0.66780959  0.20935535    -1.13000
O345        O  0.48950206  0.64824668  0.17268206    -0.72200
C346        C  0.50016972  0.65044760  0.14358587     0.98500
C347        C  0.58618460  0.69650715  0.23281368     0.94900
Al348      Al  0.53764094  0.65290222  0.24474127     1.55600
O349        O  0.55194384  0.71254260  0.17275597    -0.76900
C350        C  0.48548787  0.62329322  0.24955456     0.99000
C351        C  0.55587298  0.63678708  0.18433263     0.93900
O352        O  0.55546458  0.65298054  0.16491468    -0.82200
O353        O  0.66676001  0.52702200  0.11293105    -0.81600
C354        C  0.68577496  0.51754145  0.47520634     0.97700
O355        O  0.68866895  0.50970055  0.00436686    -0.70800
O356        O  0.69632171  0.51147419  0.07239473    -0.74300
Al357      Al  0.66765808  0.50173381  0.04339592     1.49000
C358        C  0.71456714  0.53231246  0.08119584     0.93000
O359        O  0.70046210  0.58254263  0.04889400    -0.80600
O360        O  0.63968379  0.55386778  0.03055230    -0.74100
Al361      Al  0.68264326  0.55295653  0.07748292     1.90100
O362        O  0.68483422  0.56972207  0.99649518    -0.73200
O363        O  0.62428876  0.50835595  0.50568459    -0.73000
O364        O  0.67055945  0.52571340  0.47128971    -0.78700
O365        O  0.63863775  0.48294169  0.01489110    -0.76900
O366        O  0.66871006  0.53137277  0.04177098    -1.13000
O367        O  0.64668165  0.49167581  0.08259878    -0.72200
C368        C  0.65078121  0.50372017  0.11091297     0.98500
C369        C  0.70066188  0.58635582  0.01639873     0.94900
Al370      Al  0.65592295  0.53875770  0.00440406     1.55600
O371        O  0.71315631  0.55185772  0.07771915    -0.76900
C372        C  0.62136414  0.48663646  0.50445500     0.99000
C373        C  0.64009276  0.55937151  0.06256123     0.93900
O374        O  0.65515982  0.55788607  0.08332044    -0.82200
O375        O  0.80708245  0.80207709  0.44514701    -0.81600
C376        C  0.81528991  0.83166144  0.30885506     0.97700
O377        O  0.82196466  0.84268068  0.33807986    -0.70800
O378        O  0.81967372  0.84822316  0.40578362    -0.74300
Al379      Al  0.83202935  0.83159079  0.37725534     1.49000
C380        C  0.79819435  0.84330218  0.41501839     0.93000
O381        O  0.75256898  0.77871144  0.37827387    -0.80600
O382        O  0.78839194  0.75099686  0.36316414    -0.74100
Al383      Al  0.78160008  0.79139115  0.40903179     1.90100
O384        O  0.76771166  0.77513134  0.32824569    -0.73200
O385        O  0.83254898  0.78482321  0.34011187    -0.73000
O386        O  0.81037214  0.80913754  0.30468892    -0.78700
O387        O  0.85372378  0.82495155  0.34931139    -0.76900
O388        O  0.80433246  0.80129553  0.37466298    -1.13000
O389        O  0.84333142  0.82217157  0.41685989    -0.72200
C390        C  0.83082500  0.81181958  0.44408348     0.98500
C391        C  0.74995781  0.77376766  0.34587155     0.94900
Al392      Al  0.80012168  0.78172986  0.33746567     1.55600
O393        O  0.78000395  0.82151207  0.41113246    -0.76900
C394        C  0.85291920  0.80517493  0.33908139     0.99000
C395        C  0.78106925  0.74493686  0.39422667     0.93900
O396        O  0.77874531  0.75983020  0.41414045    -0.82200
C397        C  0.74586772  0.65395148  0.48683828     0.16100
C398        C  0.76009748  0.68015306  0.48441744    -0.32900
C399        C  0.76406963  0.69087026  0.45099273     0.20500
C400        C  0.75514649  0.67622539  0.42105757     0.02700
C401        C  0.74123830  0.64997075  0.42343526    -0.22700
C402        C  0.73648178  0.63929038  0.45699187     0.11900
S403        S  0.73643826  0.63751528  0.02519529    -0.06300
C404        C  0.71889577  0.61069135  0.00084353    -0.09800
C405        C  0.72115537  0.61446560  0.46487565    -0.26400
S406        S  0.76063196  0.69305289  0.38318783    -0.03600
C407        C  0.77436329  0.72002424  0.40814406    -0.17000
C408        C  0.77506513  0.71593878  0.44372493    -0.15000
H409        H  0.76675406  0.69175492  0.50769792     0.20300
H410        H  0.73344429  0.63843448  0.40027464     0.16400
H411        H  0.71110717  0.59994304  0.44547766     0.18900
H412        H  0.78226290  0.73057495  0.46346728     0.12200
C413        C  0.64311021  0.73355413  0.29260143     0.16100
C414        C  0.65915708  0.74249261  0.32185491    -0.32900
C415        C  0.68482631  0.75160319  0.31644245     0.20500
C416        C  0.69397299  0.75209761  0.28317262     0.02700
C417        C  0.67801146  0.74355773  0.25389014    -0.22700
C418        C  0.65233430  0.73411653  0.25935706     0.11900
S419        S  0.61126794  0.71930543  0.29440730    -0.06300
C420        C  0.61024383  0.71373840  0.24998855    -0.09800
C421        C  0.63355460  0.72305367  0.23459514    -0.26400
S422        S  0.72524184  0.76244141  0.28190869    -0.03600
C423        C  0.72626812  0.76602979  0.32677488    -0.17000
C424        C  0.70335569  0.75974884  0.34173151    -0.15000
H425        H  0.65181252  0.74155276  0.34785530     0.20300
H426        H  0.68521634  0.74351279  0.22811734     0.16400
H427        H  0.63651416  0.72032499  0.20742273     0.18900
H428        H  0.70028365  0.76036912  0.36950182     0.12200
C429        C  0.59690735  0.58564611  0.09013794     0.16100
C430        C  0.58181156  0.59687024  0.09241873    -0.32900
C431        C  0.57744974  0.60356847  0.12588495     0.20500
C432        C  0.58723956  0.59886412  0.15576326     0.02700
C433        C  0.60225106  0.58767269  0.15346439    -0.22700
C434        C  0.60695900  0.58140354  0.12009417     0.11900
S435        S  0.60564518  0.57709016  0.05212218    -0.06300
C436        C  0.62335641  0.56813444  0.07698339    -0.09800
C437        C  0.62201825  0.57145137  0.11273357    -0.26400
S438        S  0.58054871  0.60909658  0.19377540    -0.03600
C439        C  0.56477372  0.62039396  0.16929913    -0.17000
C440        C  0.56462496  0.61601051  0.13350530    -0.15000
H441        H  0.57426393  0.60072065  0.06912023     0.20300
H442        H  0.61039679  0.58447930  0.17668549     0.16400
H443        H  0.63202800  0.56722302  0.13249360     0.18900
H444        H  0.55624303  0.62233840  0.11397188     0.12200
C445        C  0.40495825  0.53202881  0.32716258     0.16100
C446        C  0.42572390  0.54086568  0.30463244    -0.32900
C447        C  0.43724491  0.56611229  0.29406128     0.20500
C448        C  0.42789562  0.58141464  0.30480264     0.02700
C449        C  0.40742332  0.57270694  0.32735930    -0.22700
C450        C  0.39644750  0.54786742  0.33860747     0.11900
S451        S  0.38907052  0.50255731  0.34474729    -0.06300
C452        C  0.37160392  0.51221097  0.36850934    -0.09800
C453        C  0.37752691  0.53671302  0.36248021    -0.26400
S454        S  0.44381376  0.61117061  0.28947261    -0.03600
C455        C  0.46396184  0.60354599  0.26877010    -0.17000
C456        C  0.45833586  0.57887591  0.27349421    -0.15000
H457        H  0.43287424  0.52879143  0.29636476     0.20300
H458        H  0.40067582  0.58497131  0.33636427     0.16400
H459        H  0.36896585  0.54610590  0.37575428     0.18900
H460        H  0.46899920  0.57083031  0.26266473     0.12200
C461        C  0.44828807  0.60866075  0.08021155     0.16100
C462        C  0.42477765  0.59423227  0.06435577    -0.32900
C463        C  0.42005111  0.57218310  0.04718336     0.20500
C464        C  0.43798817  0.56482292  0.04552948     0.02700
C465        C  0.46185193  0.57966319  0.06062992    -0.22700
C466        C  0.46653502  0.60170855  0.07812381     0.11900
S467        S  0.45609369  0.63400106  0.10626001    -0.06300
C468        C  0.48431921  0.63546775  0.11438005    -0.09800
C469        C  0.48758088  0.61740319  0.09732649    -0.26400
S470        S  0.42763318  0.53630715  0.02580792    -0.03600
C471        C  0.39899392  0.53455345  0.01951818    -0.17000
C472        C  0.39778751  0.55505485  0.03204122    -0.15000
H473        H  0.41039731  0.59943753  0.06655278     0.20300
H474        H  0.47579290  0.57380345  0.05993555     0.16400
H475        H  0.50349449  0.61462413  0.10119235     0.18900
H476        H  0.38118641  0.55693964  0.53116566     0.12200
C477        C  0.25325686  0.32023108  0.07863086     0.16100
C478        C  0.26430574  0.34634100  0.07570325    -0.32900
C479        C  0.27216309  0.35692926  0.04235776     0.20500
C480        C  0.26892081  0.34230143  0.01305890     0.02700
C481        C  0.25764020  0.31620925  0.01592490    -0.22700
C482        C  0.25009424  0.30567809  0.04929525     0.11900
S483        S  0.24361667  0.30360658  0.11694728    -0.06300
C484        C  0.23542839  0.27683817  0.09304384    -0.09800
C485        C  0.23983958  0.28090905  0.05737833    -0.26400
S486        S  0.28102266  0.35896620  0.47533082    -0.03600
C487        C  0.29094928  0.38596877  0.49944313    -0.17000
C488        C  0.28463676  0.38193644  0.03463575    -0.15000
H489        H  0.26722559  0.35795871  0.09850543     0.20300
H490        H  0.25539709  0.30465509  0.99328874     0.16400
H491        H  0.23618570  0.26645219  0.03824373     0.18900
H492        H  0.28976691  0.39664935  0.05391658     0.12200
C493        C  0.54518443  0.39017033  0.43236376     0.16100
C494        C  0.56654667  0.40205771  0.45392125    -0.32900
C495        C  0.57415364  0.42650455  0.46558638     0.20500
C496        C  0.56090736  0.43849857  0.45668777     0.02700
C497        C  0.53920666  0.42638677  0.43573667    -0.22700
C498        C  0.53177393  0.40204510  0.42364822     0.11900
S499        S  0.53494265  0.36198800  0.41173803    -0.06300
C500        C  0.51218539  0.36607408  0.39144300    -0.09800
C501        C  0.51266387  0.38817419  0.40035344    -0.26400
S502        S  0.57447997  0.46892088  0.47110720    -0.03600
C503        C  0.59837358  0.46551507  0.48909785    -0.17000
C504        C  0.59549843  0.44180699  0.48438850    -0.15000
H505        H  0.57738977  0.39307868  0.46007486     0.20300
H506        H  0.52915361  0.43589289  0.42802600     0.16400
H507        H  0.50088977  0.39459256  0.38838284     0.18900
H508        H  0.60893268  0.43638752  0.49291882     0.12200
C509        C  0.56785931  0.44330420  0.21247725     0.16100
C510        C  0.58101432  0.46630255  0.19482855    -0.32900
C511        C  0.60360712  0.47183220  0.17835843     0.20500
C512        C  0.61278720  0.45531546  0.17988537     0.02700
C513        C  0.60001542  0.43272007  0.19824536    -0.22700
C514        C  0.57732508  0.42705417  0.21419804     0.11900
S515        S  0.53884841  0.43174813  0.23097938    -0.06300
C516        C  0.53959525  0.40480095  0.24108802    -0.09800
C517        C  0.56135238  0.40510926  0.23081251    -0.26400
S518        S  0.63850843  0.46357397  0.15464216    -0.03600
C519        C  0.63704353  0.48959452  0.14181975    -0.17000
C520        C  0.61775332  0.49185300  0.15679214    -0.15000
H521        H  0.57342537  0.47879129  0.19270259     0.20300
H522        H  0.60687020  0.41956701  0.19867737     0.16400
H523        H  0.56481894  0.38959440  0.23392111     0.18900
H524        H  0.61309222  0.50612955  0.14995602     0.12200
C525        C  0.35963824  0.27161595  0.20120842     0.16100
C526        C  0.34323133  0.26368287  0.17227312    -0.32900
C527        C  0.31768730  0.24690537  0.17829397     0.20500
C528        C  0.30907177  0.23828804  0.21172584     0.02700
C529        C  0.32552211  0.24603118  0.24060120    -0.22700
C530        C  0.35101648  0.26303446  0.23464845     0.11900
S531        S  0.39084716  0.29296664  0.19942319    -0.06300
C532        C  0.39252661  0.29064598  0.24429602    -0.09800
C533        C  0.36983564  0.27379289  0.25957966    -0.26400
S534        S  0.27733372  0.21978048  0.21431692    -0.03600
C535        C  0.27535033  0.22381840  0.16994636    -0.17000
C536        C  0.29842613  0.23846343  0.15403322    -0.15000
H537        H  0.35000045  0.27085109  0.14633895     0.20300
H538        H  0.31859529  0.23964870  0.26673514     0.16400
H539        H  0.36709877  0.27015552  0.28736323     0.18900
H540        H  0.30084228  0.24412245  0.12687169     0.12200
C541        C  0.42483899  0.41091452  0.35065854     0.16100
C542        C  0.41556311  0.42744615  0.35546228    -0.32900
C543        C  0.40741463  0.42926050  0.38914090     0.20500
C544        C  0.40879024  0.41564904  0.41704619     0.02700
C545        C  0.41838948  0.39941320  0.41233868    -0.22700
C546        C  0.42609387  0.39724622  0.37857281     0.11900
S547        S  0.43394662  0.40438460  0.31140346    -0.06300
C548        C  0.43910331  0.38271920  0.33285659    -0.09800
C549        C  0.43431993  0.38123309  0.36855847    -0.26400
S550        S  0.39582842  0.41886048  0.45505261    -0.03600
C551        C  0.38799718  0.43836996  0.43294570    -0.17000
C552        C  0.39574622  0.44243847  0.39821046    -0.15000
H553        H  0.41391872  0.43777364  0.33365738     0.20300
H554        H  0.41895900  0.38822119  0.43378335     0.16400
H555        H  0.43612437  0.36849082  0.38628923     0.18900
H556        H  0.39153297  0.45323328  0.37979764     0.12200
C557        C  0.57339644  0.98690666  0.39778743     0.16100
C558        C  0.58325024  0.01280694  0.39366084    -0.32900
C559        C  0.59257227  0.02316453  0.36059566     0.20500
C560        C  0.59135013  0.00840369  0.33240172     0.02700
C561        C  0.58096951  0.98241359  0.33633213    -0.22700
C562        C  0.57250390  0.97219437  0.36973128     0.11900
S563        S  0.56405228  0.97112972  0.43677446    -0.06300
C564        C  0.55967751  0.94461456  0.41523134    -0.09800
C565        C  0.56451120  0.94797331  0.37954652    -0.26400
S566        S  0.60583803  0.02501311  0.29537138    -0.03600
C567        C  0.61433776  0.05214259  0.31855203    -0.17000
C568        C  0.60556034  0.04817432  0.35270758    -0.15000
H569        H  0.58483561  0.02458764  0.41571005     0.20300
H570        H  0.58074784  0.97085861  0.31478924     0.16400
H571        H  0.56335130  0.93363514  0.36190131     0.18900
H572        H  0.60977887  0.06297557  0.37149855     0.12200
C573        C  0.54767981  0.80478746  0.08673268     0.16100
C574        C  0.55950060  0.79228581  0.10117069    -0.32900
C575        C  0.54544901  0.77221065  0.12396897     0.20500
C576        C  0.52095961  0.76541636  0.13250817     0.02700
C577        C  0.50929620  0.77808043  0.11849949    -0.22700
C578        C  0.52309776  0.79769694  0.09517035     0.11900
S579        S  0.56034926  0.82752356  0.05543653    -0.06300
C580        C  0.53223546  0.82731722  0.05373949    -0.09800
C581        C  0.51411935  0.81055262  0.07628356    -0.26400
S582        S  0.50628854  0.73962541  0.15830982    -0.03600
C583        C  0.53314699  0.73737151  0.15724219    -0.17000
C584        C  0.55268243  0.75621310  0.13834081    -0.15000
H585        H  0.57840262  0.79728321  0.09378990     0.20300
H586        H  0.48993286  0.77219200  0.12439610     0.16400
H587        H  0.49496346  0.80684157  0.07714878     0.18900
H588        H  0.57061035  0.75738049  0.13387308     0.12200
C589        C  0.55276299  0.77659413  0.37056742     0.16100
C590        C  0.56122069  0.76488606  0.34708490    -0.32900
C591        C  0.54442705  0.73980941  0.33784251     0.20500
C592        C  0.52052724  0.72677465  0.35196547     0.02700
C593        C  0.51230003  0.73830134  0.37589487    -0.22700
C594        C  0.52881260  0.76348050  0.38441814     0.11900
S595        S  0.56897180  0.80768770  0.38217120    -0.06300
C596        C  0.54290619  0.80291176  0.40518844    -0.09800
C597        C  0.52316441  0.77839487  0.40439096    -0.26400
S598        S  0.50202941  0.69747059  0.33482823    -0.03600
C599        C  0.52668391  0.70284445  0.30832394    -0.17000
C600        C  0.54807091  0.72603847  0.31273199    -0.15000
H601        H  0.57959832  0.77518506  0.33529030     0.20300
H602        H  0.49339435  0.72845139  0.38610468     0.16400
H603        H  0.50506451  0.77205508  0.41640790     0.18900
H604        H  0.56474711  0.73300611  0.29680355     0.12200
C605        C  0.81401636  0.93857229  0.98537725     0.16100
C606        C  0.82115024  0.92825861  0.95797671    -0.32900
C607        C  0.80702848  0.90216752  0.45271569     0.20500
C608        C  0.78629260  0.88711034  0.47309794     0.02700
C609        C  0.77916349  0.89740709  0.50042843    -0.22700
C610        C  0.79368484  0.92333635  0.00632707     0.11900
S611        S  0.82983015  0.96945402  0.99800061    -0.06300
C612        C  0.80914504  0.96148045  0.03219323    -0.09800
C613        C  0.79092533  0.93638226  0.03335514    -0.26400
S614        S  0.77225218  0.85580150  0.46354870    -0.03600
C615        C  0.79497610  0.86289972  0.43244639    -0.17000
C616        C  0.81217745  0.88834183  0.42944106    -0.15000
H617        H  0.83747901  0.93991213  0.94225168     0.20300
H618        H  0.76350074  0.88560094  0.51712895     0.16400
H619        H  0.77697091  0.92800220  0.05370596     0.18900
H620        H  0.82816364  0.89618592  0.41207768     0.12200
C621        C  0.78905459  0.89387192  0.21550575     0.16100
C622        C  0.77960241  0.87225796  0.23627289    -0.32900
C623        C  0.79671930  0.86507813  0.24837232     0.20500
C624        C  0.82197689  0.87861599  0.23981112     0.02700
C625        C  0.83126302  0.89985568  0.21866241    -0.22700
C626        C  0.81430884  0.90720221  0.20702718     0.11900
S627        S  0.77212035  0.90722724  0.20061071    -0.06300
C628        C  0.79953803  0.93106830  0.18331135    -0.09800
C629        C  0.82035673  0.92836256  0.18842670    -0.26400
S630        S  0.84026077  0.86859117  0.25962603    -0.03600
C631        C  0.81365946  0.84577409  0.27941667    -0.17000
C632        C  0.79180002  0.84599611  0.27116884    -0.15000
H633        H  0.76002972  0.86205009  0.24369315     0.20300
H634        H  0.85105814  0.91076958  0.21265390     0.16400
H635        H  0.83921085  0.94174952  0.18016456     0.18900
H636        H  0.77369600  0.83388971  0.28291188     0.12200
C637        C  0.75616617  0.07602994  0.17778157     0.16100
C638        C  0.74510057  0.09122333  0.17966716    -0.32900
C639        C  0.73494376  0.09269218  0.21193280     0.20500
C640        C  0.73644634  0.08027229  0.24126597     0.02700
C641        C  0.74788709  0.06552325  0.23953794    -0.22700
C642        C  0.75736206  0.06349977  0.20715270     0.11900
S643        S  0.76707211  0.06928014  0.14036295    -0.06300
C644        C  0.77270024  0.04895812  0.16459018    -0.09800
C645        C  0.76701227  0.04826093  0.19983806    -0.26400
S646        S  0.72176087  0.08314814  0.27738672    -0.03600
C647        C  0.71290930  0.10081207  0.25262786    -0.17000
C648        C  0.72144065  0.10454557  0.21833714    -0.15000
H649        H  0.74351034  0.10060625  0.15668646     0.20300
H650        H  0.74845322  0.05521379  0.26213076     0.16400
H651        H  0.76869811  0.03620754  0.21898422     0.18900
H652        H  0.71724577  0.11468578  0.19881815     0.12200
C653        C  0.64177547  0.91729571  0.05234717     0.16100
C654        C  0.65740335  0.92649089  0.08192650    -0.32900
C655        C  0.68275716  0.93366467  0.07790383     0.20500
C656        C  0.69187796  0.93116027  0.04591446     0.02700
C657        C  0.67608393  0.92131986  0.01656156    -0.22700
C658        C  0.65086844  0.91475872  0.02036665     0.11900
S659        S  0.61122879  0.90997845  0.05133182    -0.06300
C660        C  0.61057465  0.90368926  0.50719221    -0.09800
C661        C  0.63294821  0.90671433  0.49426397    -0.26400
S662        S  0.72353758  0.94349407  0.04507384    -0.03600
C663        C  0.72469995  0.95254203  0.08809557    -0.17000
C664        C  0.70150772  0.94560605  0.10251443    -0.15000
H665        H  0.65033196  0.92900171  0.10659851     0.20300
H666        H  0.68341485  0.91997679  0.99145896     0.16400
H667        H  0.63611221  0.90384316  0.46724571     0.18900
H668        H  0.69874268  0.95079572  0.12850543     0.12200
C669        C  0.56900743  0.14625544  0.21547554     0.16100
C670        C  0.55647116  0.15808660  0.20163323    -0.32900
C671        C  0.53760486  0.14484889  0.17675741     0.20500
C672        C  0.53088287  0.12052924  0.16703000     0.02700
C673        C  0.54294950  0.10841197  0.18169014    -0.22700
C674        C  0.56248540  0.12201587  0.20563839     0.11900
S675        S  0.59485286  0.16071213  0.24162662    -0.06300
C676        C  0.59750853  0.13417663  0.23848784    -0.09800
C677        C  0.57863799  0.11479637  0.21922254    -0.26400
S678        S  0.50941828  0.10865318  0.13379676    -0.03600
C679        C  0.50972656  0.13676405  0.13294900    -0.17000
C680        C  0.52541046  0.15426462  0.15729521    -0.15000
H681        H  0.56220053  0.17731331  0.20839351     0.20300
H682        H  0.53833652  0.08978609  0.17322292     0.16400
H683        H  0.57779978  0.09715121  0.21346560     0.18900
H684        H  0.52877540  0.17326857  0.15922591     0.12200
C685        C  0.60452213  0.14492782  0.43058083     0.16100
C686        C  0.59369565  0.15340120  0.45526881    -0.32900
C687        C  0.56814604  0.13788690  0.46249708     0.20500
C688        C  0.55399986  0.11462039  0.44666887     0.02700
C689        C  0.56496485  0.10590246  0.42238239    -0.22700
C690        C  0.59042437  0.12173567  0.41444690     0.11900
S691        S  0.63439897  0.16236969  0.41516279    -0.06300
C692        C  0.62776172  0.13825436  0.38661719    -0.09800
C693        C  0.60378955  0.11779054  0.38912305    -0.26400
S694        S  0.52277520  0.09965357  0.45713978    -0.03600
C695        C  0.52889018  0.12535834  0.48233476    -0.17000
C696        C  0.55390450  0.14403542  0.48307666    -0.15000
H697        H  0.60442328  0.17180176  0.46711582     0.20300
H698        H  0.55389261  0.08809428  0.40910586     0.16400
H699        H  0.59617649  0.10156744  0.37199613     0.18900
H700        H  0.56111693  0.16179295  0.99666765     0.12200
C701        C  0.48853315  0.21319719  0.40202380     0.16100
C702        C  0.49801634  0.23429342  0.38050114    -0.32900
C703        C  0.48101792  0.24102917  0.36699631     0.20500
C704        C  0.45553840  0.22715526  0.37391470     0.02700
C705        C  0.44587191  0.20551297  0.39471022    -0.22700
C706        C  0.46302380  0.19900443  0.40878872     0.11900
S707        S  0.50672500  0.20419127  0.42451055    -0.06300
C708        C  0.47975624  0.18091366  0.44301255    -0.09800
C709        C  0.45781410  0.18009382  0.43211570    -0.26400
S710        S  0.43858832  0.24013740  0.35767684    -0.03600
C711        C  0.46627003  0.26458837  0.34192819    -0.17000
C712        C  0.48720432  0.26227559  0.34840841    -0.15000
H713        H  0.51796476  0.24568130  0.37585402     0.20300
H714        H  0.42609592  0.19490516  0.40091186     0.16400
H715        H  0.43934617  0.16739083  0.44238253     0.18900
H716        H  0.50622629  0.27613594  0.34150942     0.12200
C717        C  0.46829067  0.26912363  0.15220418     0.16100
C718        C  0.45607062  0.24818379  0.12981105    -0.32900
C719        C  0.46907652  0.23559313  0.12056780     0.20500
C720        C  0.49338308  0.24402590  0.13234349     0.02700
C721        C  0.50546382  0.26473363  0.15472764    -0.22700
C722        C  0.49227593  0.27681373  0.16466156     0.11900
S723        S  0.45527213  0.28589197  0.16900374    -0.06300
C724        C  0.48213503  0.30269691  0.19376561    -0.09800
C725        C  0.50021087  0.29588710  0.18853450    -0.26400
S726        S  0.50621107  0.22661270  0.11858337    -0.03600
C727        C  0.47839428  0.20715509  0.09729400    -0.17000
C728        C  0.46018036  0.21410037  0.10060789    -0.15000
H729        H  0.43706025  0.24160165  0.12079987     0.20300
H730        H  0.52414495  0.27077892  0.16472183     0.16400
H731        H  0.51775553  0.30364013  0.20290029     0.18900
H732        H  0.44154535  0.20397448  0.08923152     0.12200
C733        C  0.31974749  0.07729664  0.42767143     0.16100
C734        C  0.34605095  0.09153769  0.42864726    -0.32900
C735        C  0.35779274  0.09826930  0.46162024     0.20500
C736        C  0.34403178  0.09192084  0.49226619     0.02700
C737        C  0.31773093  0.07808444  0.49124048    -0.22700
C738        C  0.30601534  0.07059004  0.45835193     0.11900
S739        S  0.30197937  0.06497442  0.39060388    -0.06300
C740        C  0.27583719  0.05013667  0.41682140    -0.09800
C741        C  0.28087157  0.05505914  0.45227878    -0.26400
S742        S  0.36184524  0.09982635  0.02966379    -0.03600
C743        C  0.38805945  0.11092749  0.00375196    -0.17000
C744        C  0.38304517  0.10936247  0.46807200    -0.15000
H745        H  0.35693014  0.09610783  0.40484944     0.20300
H746        H  0.30691266  0.07232867  0.01510930     0.16400
H747        H  0.26693100  0.04697005  0.47269634     0.18900
H748        H  0.39705848  0.11457176  0.44784299     0.12200
C749        C  0.16863547  0.05616170  0.50834813     0.16100
C750        C  0.15941035  0.07055432  0.02379453    -0.32900
C751        C  0.17622704  0.09161057  0.04331217     0.20500
C752        C  0.20115292  0.09805976  0.04752932     0.02700
C753        C  0.21028668  0.08325948  0.03273314    -0.22700
C754        C  0.19342912  0.06218394  0.51296998     0.11900
S755        S  0.15186434  0.03192645  0.48020416    -0.06300
C756        C  0.17838861  0.02964798  0.47460988    -0.09800
C757        C  0.19906567  0.04663990  0.49401364    -0.26400
S758        S  0.21886368  0.12551857  0.06996088    -0.03600
C759        C  0.19228387  0.12807585  0.07388127    -0.17000
C760        C  0.17098148  0.10858876  0.05861698    -0.15000
H761        H  0.14018668  0.06607268  0.01968026     0.20300
H762        H  0.22980415  0.08841813  0.53547404     0.16400
H763        H  0.21760773  0.04878837  0.49213514     0.18900
H764        H  0.15280399  0.10737633  0.05766700     0.12200
C765        C  0.16943678  0.11159255  0.25757782     0.16100
C766        C  0.16044547  0.08816264  0.27338258    -0.32900
C767        C  0.17716496  0.08451908  0.29414405     0.20500
C768        C  0.20180705  0.10335928  0.29923363     0.02700
C769        C  0.21063995  0.12718913  0.28423608    -0.22700
C770        C  0.19386067  0.13082715  0.26320234     0.11900
S771        S  0.15285541  0.11836106  0.22803571    -0.06300
C772        C  0.17883757  0.14765361  0.22342047    -0.09800
C773        C  0.19926584  0.15186022  0.24399267    -0.26400
S774        S  0.21960100  0.09401235  0.32260371    -0.03600
C775        C  0.19339602  0.06456469  0.32564409    -0.17000
C776        C  0.17217183  0.06246467  0.30960150    -0.15000
H777        H  0.14149812  0.07307178  0.26854785     0.20300
H778        H  0.22993583  0.14189348  0.28769948     0.16400
H779        H  0.21753455  0.16863840  0.24298928     0.18900
H780        H  0.15423649  0.04528902  0.30792578     0.12200
C781        C  0.42714034  0.84384117  0.05246751     0.16100
C782        C  0.40767340  0.83275107  0.07677994    -0.32900
C783        C  0.39695068  0.84684613  0.08852931     0.20500
C784        C  0.40475724  0.87076147  0.07600911     0.02700
C785        C  0.42455097  0.88203976  0.05188448    -0.22700
C786        C  0.43576834  0.86810801  0.04073904     0.11900
S787        S  0.44291798  0.82988126  0.03625363    -0.06300
C788        C  0.46204860  0.85720936  0.01411063    -0.09800
C789        C  0.45610114  0.87604760  0.01886676    -0.26400
S790        S  0.38924082  0.88467765  0.09411530    -0.03600
C791        C  0.37275052  0.85826032  0.11942466    -0.17000
C792        C  0.37886690  0.83972885  0.11365767    -0.15000
H793        H  0.40147836  0.81407431  0.08666347     0.20300
H794        H  0.43122744  0.90098065  0.04276901     0.16400
H795        H  0.46632793  0.89457918  0.50751163     0.18900
H796        H  0.37092936  0.82220069  0.12783788     0.12200
C797        C  0.46031180  0.84768936  0.31886843     0.16100
C798        C  0.43873474  0.83874690  0.29807918    -0.32900
C799        C  0.43176503  0.85609050  0.28687601     0.20500
C800        C  0.44600250  0.88139759  0.29501856     0.02700
C801        C  0.46815159  0.89052468  0.31479190    -0.22700
C802        C  0.47477418  0.87303072  0.32683752     0.11900
S803        S  0.46923137  0.82895847  0.34000186    -0.06300
C804        C  0.49273354  0.85550154  0.35960272    -0.09800
C805        C  0.49374986  0.87767280  0.34991089    -0.26400
S806        S  0.43277739  0.89883745  0.28200025    -0.03600
C807        C  0.40765983  0.87161007  0.26604503    -0.17000
C808        C  0.40993164  0.85043601  0.26995555    -0.15000
H809        H  0.42703396  0.81889466  0.29267485     0.20300
H810        H  0.47894563  0.91012850  0.32213474     0.16400
H811        H  0.50633952  0.89584699  0.36137394     0.18900
H812        H  0.39573459  0.83162832  0.26238921     0.12200
C813        C  0.25817337  0.93622015  0.33185979     0.16100
C814        C  0.27436298  0.92640655  0.32932310    -0.32900
C815        C  0.27804877  0.91909170  0.29607363     0.20500
C816        C  0.26610041  0.92120949  0.26655590     0.02700
C817        C  0.24990198  0.93104272  0.26909086    -0.22700
C818        C  0.24637379  0.93856896  0.30232254     0.11900
S819        S  0.25208650  0.94732451  0.36952884    -0.06300
C820        C  0.23382614  0.95566710  0.34509122    -0.09800
C821        C  0.23240014  0.94968578  0.30978086    -0.26400
S822        S  0.27365271  0.91169382  0.22853094    -0.03600
C823        C  0.29324516  0.90497057  0.25272746    -0.17000
C824        C  0.29356205  0.90981963  0.28830648    -0.15000
H825        H  0.28399272  0.92490657  0.35217071     0.20300
H826        H  0.24077014  0.93312822  0.24610980     0.16400
H827        H  0.22233505  0.95407815  0.29031792     0.18900
H828        H  0.30493574  0.90707004  0.30756406     0.12200
C829        C  0.40574945  0.99325458  0.16064334     0.16100
C830        C  0.41638330  0.01927224  0.15713736    -0.32900
C831        C  0.42013019  0.02905314  0.12312571     0.20500
C832        C  0.41397622  0.01380910  0.09378557     0.02700
C833        C  0.40347506  0.98781020  0.09729093    -0.22700
C834        C  0.39941756  0.97799443  0.13129747     0.11900
S835        S  0.39779683  0.97735828  0.19953101    -0.06300
C836        C  0.38535623  0.94985547  0.17587629    -0.09800
C837        C  0.38790602  0.95317150  0.13989888    -0.26400
S838        S  0.41960797  0.02946251  0.05484730    -0.03600
C839        C  0.43006049  0.05678393  0.07845180    -0.17000
C840        C  0.42931235  0.05364571  0.11447887    -0.15000
H841        H  0.42097029  0.03130635  0.17988345     0.20300
H842        H  0.39816965  0.97569095  0.07453789     0.16400
H843        H  0.38051098  0.93806370  0.12086462     0.18900
H844        H  0.43504172  0.06863584  0.13346130     0.12200
C845        C  0.91572198  0.81992746  0.29783599     0.16100
C846        C  0.93950882  0.83197532  0.28230260    -0.32900
C847        C  0.94613613  0.81749515  0.26129767     0.20500
C848        C  0.93005802  0.79195874  0.25670267     0.02700
C849        C  0.90630585  0.77982876  0.27255538    -0.22700
C850        C  0.89941183  0.79448016  0.29288408     0.11900
S851        S  0.90346055  0.83480347  0.32142542    -0.06300
C852        C  0.87578574  0.80660087  0.32429101    -0.09800
C853        C  0.87642745  0.78666908  0.30813596    -0.26400
S854        S  0.94081996  0.77820133  0.22792528    -0.03600
C855        C  0.96701356  0.80719266  0.22172722    -0.17000
C856        C  0.96731646  0.82635635  0.24114938    -0.15000
H857        H  0.95190035  0.85197920  0.28529836     0.20300
H858        H  0.89339395  0.76007954  0.26807523     0.16400
H859        H  0.86062700  0.76777122  0.30634238     0.18900
H860        H  0.98150940  0.84594591  0.23897952     0.12200
C861        C  0.88936600  0.78719321  0.04667688     0.16100
C862        C  0.86682643  0.77763997  0.02767649    -0.32900
C863        C  0.86147882  0.79501061  0.51164613     0.20500
C864        C  0.87767352  0.82066674  0.51488160     0.02700
C865        C  0.89965632  0.83013931  0.53469169    -0.22700
C866        C  0.90516436  0.81286543  0.05011133     0.11900
S867        S  0.90114642  0.76961713  0.06448239    -0.06300
C868        C  0.92756914  0.79729291  0.07622171    -0.09800
C869        C  0.92683753  0.81871702  0.06733019    -0.26400
S870        S  0.87003430  0.83872487  0.48983948    -0.03600
C871        C  0.84464964  0.81154167  0.47492439    -0.17000
C872        C  0.84207892  0.78964217  0.48897495    -0.15000
H873        H  0.85466508  0.75763595  0.02408141     0.20300
H874        H  0.91260846  0.85012921  0.53644534     0.16400
H875        H  0.94203978  0.83771954  0.07152027     0.18900
H876        H  0.82807055  0.77090504  0.48081183     0.12200
C877        C  0.10407095  0.88921119  0.46464905     0.16100
C878        C  0.09213767  0.86874029  0.98754339    -0.32900
C879        C  0.06673243  0.85983957  0.99544624     0.20500
C880        C  0.05355698  0.87036515  0.98047913     0.02700
C881        C  0.06528301  0.89032436  0.45682139    -0.22700
C882        C  0.09085914  0.89969921  0.44975358     0.11900
S883        S  0.13555276  0.90496271  0.45528429    -0.06300
C884        C  0.13097044  0.92623188  0.43164434    -0.09800
C885        C  0.10610117  0.92071956  0.43062603    -0.26400
S886        S  0.02393368  0.85910390  0.99679704    -0.03600
C887        C  0.02933703  0.84004504  0.02407009    -0.17000
C888        C  0.05281796  0.84228947  0.02031014    -0.15000
H889        H  0.10254921  0.86098273  0.00013660     0.20300
H890        H  0.05529112  0.89911509  0.44594971     0.16400
H891        H  0.09968335  0.93226767  0.41798563     0.18900
H892        H  0.05997732  0.83294079  0.03680016     0.12200
C893        C  0.13452074  0.92594713  0.24430073     0.16100
C894        C  0.12319692  0.90256836  0.22741341    -0.32900
C895        C  0.10253208  0.89650600  0.20562611     0.20500
C896        C  0.09388622  0.91321988  0.20033205     0.02700
C897        C  0.10542555  0.93673623  0.21679148    -0.22700
C898        C  0.12570407  0.94255108  0.23919065     0.11900
S899        S  0.15791249  0.93556039  0.27474135    -0.06300
C900        C  0.15554910  0.96199327  0.28077665    -0.09800
C901        C  0.13773473  0.96334730  0.26019875    -0.26400
S902        S  0.06737955  0.90165126  0.17541845    -0.03600
C903        C  0.06764868  0.87381902  0.17249332    -0.17000
C904        C  0.08763321  0.87385943  0.18942885    -0.15000
H905        H  0.12952873  0.88927184  0.23223143     0.20300
H906        H  0.09821552  0.94947078  0.21349020     0.16400
H907        H  0.13292650  0.97802022  0.26196913     0.18900
H908        H  0.09028035  0.85777554  0.19148957     0.12200
C909        C  0.10220924  0.74890126  0.03254183     0.16100
C910        C  0.09710058  0.75990517  0.06120751    -0.32900
C911        C  0.07702699  0.76450591  0.05811305     0.20500
C912        C  0.06320300  0.75900650  0.02734396     0.02700
C913        C  0.06872125  0.74862257  0.99836374    -0.22700
C914        C  0.08835195  0.74339546  0.00179575     0.11900
S915        S  0.12292905  0.73820187  0.03345369    -0.06300
C916        C  0.11263537  0.72579675  0.49222440    -0.09800
C917        C  0.09453579  0.73043554  0.47822156    -0.26400
S918        S  0.03841921  0.76394808  0.02945352    -0.03600
C919        C  0.04633772  0.77314671  0.07251417    -0.17000
C920        C  0.06757728  0.77290198  0.08418394    -0.15000
H921        H  0.10744844  0.76344608  0.08550907     0.20300
H922        H  0.05736115  0.74364473  0.97481504     0.16400
H923        H  0.08474483  0.72267516  0.45374932     0.18900
H924        H  0.07502835  0.77755803  0.11053469     0.12200
C925        C  0.21898680  0.73176730  0.09618282     0.16100
C926        C  0.24096298  0.74391898  0.11623934    -0.32900
C927        C  0.24692376  0.76687309  0.13173148     0.20500
C928        C  0.23166666  0.77736002  0.12773030     0.02700
C929        C  0.20925698  0.76487330  0.10822383    -0.22700
C930        C  0.20332336  0.74184543  0.09249564     0.11900
S931        S  0.21023933  0.70524070  0.07227322    -0.06300
C932        C  0.18495111  0.70735614  0.05746362    -0.09800
C933        C  0.18343584  0.72763184  0.07046432    -0.26400
S934        S  0.24361886  0.80648297  0.14644193    -0.03600
C935        C  0.26930661  0.80427595  0.15974641    -0.17000
C936        C  0.26829909  0.78203795  0.15028839    -0.15000
H937        H  0.25337340  0.73623779  0.11864096     0.20300
H938        H  0.19743147  0.77311030  0.10451655     0.16400
H939        H  0.16952917  0.73254904  0.06246277     0.18900
H940        H  0.28301501  0.77762908  0.15541353     0.12200
C941        C  0.24958785  0.76372537  0.38434096     0.16100
C942        C  0.27337399  0.77518694  0.36902398    -0.32900
C943        C  0.28075031  0.79707116  0.34975455     0.20500
C944        C  0.26553624  0.80771525  0.34695977     0.02700
C945        C  0.24175980  0.79637978  0.36275247    -0.22700
C946        C  0.23395585  0.77385418  0.38097170     0.11900
S947        S  0.23647183  0.73565617  0.40523874    -0.06300
C948        C  0.20916956  0.73687134  0.40862055    -0.09800
C949        C  0.21060774  0.75849972  0.39507921    -0.26400
S950        S  0.27724732  0.83324863  0.32006644    -0.03600
C951        C  0.30246260  0.82903213  0.31205884    -0.17000
C952        C  0.30187911  0.80913068  0.32961715    -0.15000
H953        H  0.28511272  0.76671082  0.37060856     0.20300
H954        H  0.22944230  0.80409071  0.35951965     0.16400
H955        H  0.19517073  0.76223995  0.39422905     0.18900
H956        H  0.31544619  0.80296589  0.32623165     0.12200
C957        C  0.94646775  0.69279422  0.21711562     0.16100
C958        C  0.94150748  0.67704288  0.24612868    -0.32900
C959        C  0.92236145  0.65195294  0.24288197     0.20500
C960        C  0.90878137  0.64306214  0.21201213     0.02700
C961        C  0.91347576  0.65894379  0.18318269    -0.22700
C962        C  0.93271082  0.68402468  0.18636801     0.11900
S963        S  0.96971333  0.72331598  0.21547720    -0.06300
C964        C  0.96094672  0.72455995  0.17285721    -0.09800
C965        C  0.94082452  0.70223666  0.16082116    -0.26400
S966        S  0.88811392  0.61159311  0.21192772    -0.03600
C967        C  0.89769149  0.61027680  0.25396510    -0.17000
C968        C  0.91583260  0.63326725  0.26731861    -0.15000
H969        H  0.95253904  0.68391255  0.26990382     0.20300
H970        H  0.90305518  0.65185989  0.15898701     0.16400
H971        H  0.93289787  0.69935577  0.13475317     0.18900
H972        H  0.92502286  0.63584427  0.29244949     0.12200
C973        C  0.77477784  0.54264082  0.12777055     0.16100
C974        C  0.79748303  0.55196640  0.14644069    -0.32900
C975        C  0.80229355  0.53451023  0.16347578     0.20500
C976        C  0.78532967  0.50896091  0.16172106     0.02700
C977        C  0.76312024  0.49966292  0.14224912    -0.22700
C978        C  0.75822324  0.51704627  0.12558904     0.11900
S979        S  0.76390339  0.56054159  0.10834928    -0.06300
C980        C  0.73686259  0.53315317  0.09725607    -0.09800
C981        C  0.73671176  0.51152768  0.10781741    -0.26400
S982        S  0.79286888  0.49097305  0.18734702    -0.03600
C983        C  0.81939333  0.51800868  0.20021427    -0.17000
C984        C  0.82219695  0.53980240  0.18528085    -0.15000
H985        H  0.81032883  0.57194406  0.14875655     0.20300
H986        H  0.74968876  0.47975482  0.14135602     0.16400
H987        H  0.72108867  0.49267694  0.10413750     0.18900
H988        H  0.83708364  0.55853620  0.19180674     0.12200
C989        C  0.77088713  0.54130457  0.37650981     0.16100
C990        C  0.75685671  0.55059937  0.39327033    -0.32900
C991        C  0.73444004  0.53320386  0.40977382     0.20500
C992        C  0.72626816  0.50770857  0.40920493     0.02700
C993        C  0.73981535  0.49840176  0.39153253    -0.22700
C994        C  0.76231300  0.51575828  0.37555859     0.11900
S995        S  0.79994981  0.55926468  0.35825508    -0.06300
C996        C  0.80042227  0.53198117  0.34947768    -0.09800
C997        C  0.77895995  0.51032343  0.35977798    -0.26400
S998        S  0.70066487  0.48994485  0.43452704    -0.03600
C999        C  0.70064555  0.51701144  0.44572792    -0.17000
C1000       C  0.71946836  0.53862175  0.43037947    -0.15000
H1001       H  0.76366436  0.57056194  0.39474500     0.20300
H1002       H  0.73371048  0.47855605  0.39169046     0.16400
H1003       H  0.77611231  0.49153387  0.35718100     0.18900
H1004       H  0.72315603  0.55740691  0.93621118     0.12200
C1005       C  0.99209768  0.58667295  0.34386571     0.16100
C1006       C  0.01837119  0.60088430  0.34610110    -0.32900
C1007       C  0.02933314  0.60781526  0.37956850     0.20500
C1008       C  0.01493026  0.60052848  0.40962360     0.02700
C1009       C  0.98866637  0.58607603  0.40741206    -0.22700
C1010       C  0.97768332  0.57960239  0.37391037     0.11900
S1011       S  0.97497525  0.57824515  0.30569354    -0.06300
C1012       C  0.94810225  0.56562594  0.33049197    -0.09800
C1013       C  0.95252134  0.56742610  0.36638971    -0.26400
S1014       S  0.03192892  0.61182175  0.44762963    -0.03600
C1015       C  0.05871517  0.62687612  0.42270179    -0.17000
C1016       C  0.05436926  0.62284597  0.38691692    -0.15000
H1017       H  0.02974621  0.60697271  0.32274219     0.20300
H1018       H  0.97723880  0.58078055  0.43072892     0.16400
H1019       H  0.93801813  0.56114341  0.38607751     0.18900
H1020       H  0.06879437  0.63100569  0.36713672     0.12200
C1021       C  0.76972061  0.22459779  0.38014147     0.16100
C1022       C  0.79354801  0.23927191  0.39534924    -0.32900
C1023       C  0.79800320  0.26085577  0.41397347     0.20500
C1024       C  0.77957229  0.26745049  0.41739838     0.02700
C1025       C  0.75602876  0.25308851  0.40177157    -0.22700
C1026       C  0.75163535  0.23166653  0.38317172     0.11900
S1027       S  0.75980983  0.19705393  0.35763580    -0.06300
C1028       C  0.73125962  0.19553608  0.35198427    -0.09800
C1029       C  0.72972951  0.21523866  0.36695898    -0.26400
S1030       S  0.78770600  0.29297480  0.44328110    -0.03600
C1031       C  0.81639140  0.29503353  0.44947346    -0.17000
C1032       C  0.81940957  0.27691559  0.43202475    -0.15000
H1033       H  0.80779269  0.23388459  0.39332367     0.20300
H1034       H  0.74155864  0.25811163  0.40457675     0.16400
H1035       H  0.71318030  0.21722585  0.36653760     0.18900
H1036       H  0.83584929  0.27481028  0.43401737     0.12200
C1037       C  0.77995918  0.24145823  0.15067288     0.16100
C1038       C  0.76930654  0.22726667  0.18065774    -0.32900
C1039       C  0.74342267  0.21087755  0.18058955     0.20500
C1040       C  0.72856397  0.20807424  0.15166006     0.02700
C1041       C  0.73928603  0.22253754  0.12140128    -0.22700
C1042       C  0.76537600  0.23951662  0.12176986     0.11900
S1043       S  0.81095501  0.26285685  0.14692118    -0.06300
C1044       C  0.80461009  0.27003946  0.10610232    -0.09800
C1045       C  0.77952201  0.25613543  0.09589917    -0.26400
S1046       S  0.69729562  0.18675691  0.15772804    -0.03600
C1047       C  0.70469129  0.18254693  0.19983597    -0.17000
C1048       C  0.72988314  0.19655110  0.20815803    -0.15000
H1049       H  0.78070506  0.22924892  0.20341589     0.20300
H1050       H  0.72781033  0.22092103  0.09890354     0.16400
H1051       H  0.77204860  0.25835999  0.07132030     0.18900
H1052       H  0.73786634  0.19639348  0.23340320     0.12200
C1053       C  0.88483133  0.40990017  0.17454895     0.16100
C1054       C  0.89644096  0.43328962  0.19181910    -0.32900
C1055       C  0.88090994  0.44030463  0.20975411     0.20500
C1056       C  0.85516017  0.42429461  0.21123673     0.02700
C1057       C  0.84365791  0.40100681  0.19428741    -0.22700
C1058       C  0.85899241  0.39442491  0.17550135     0.11900
S1059       S  0.89977689  0.39868536  0.14866685    -0.06300
C1060       C  0.87075425  0.37352668  0.13816581    -0.09800
C1061       C  0.85083490  0.37365186  0.15468952    -0.26400
S1062       S  0.83922346  0.43612987  0.23275743    -0.03600
C1063       C  0.86732684  0.46343089  0.23937354    -0.17000
C1064       C  0.88809337  0.46299511  0.22593987    -0.15000
H1065       H  0.91650322  0.44580211  0.19026022     0.20300
H1066       H  0.82347651  0.38894702  0.19461279     0.16400
H1067       H  0.83128896  0.35976071  0.15055758     0.18900
H1068       H  0.90714194  0.47858192  0.22698489     0.12200
C1069       C  0.85869066  0.43098704  0.46950279     0.16100
C1070       C  0.84830713  0.44579974  0.45926407    -0.32900
C1071       C  0.86039866  0.46339147  0.43263162     0.20500
C1072       C  0.88230999  0.46658421  0.41761118     0.02700
C1073       C  0.89284142  0.45193434  0.42811173    -0.22700
C1074       C  0.88027058  0.43376012  0.45395260     0.11900
S1075       S  0.84552272  0.40720454  0.49909839    -0.06300
C1076       C  0.86885459  0.40032145  0.48982990    -0.09800
C1077       C  0.88616569  0.41609975  0.46539318    -0.26400
S1078       S  0.89288114  0.48720090  0.38361079    -0.03600
C1079       C  0.86735137  0.49124137  0.38926502    -0.17000
C1080       C  0.85170434  0.47757375  0.41645271    -0.15000
H1081       H  0.83096424  0.44297370  0.47051983     0.20300
H1082       H  0.90944600  0.45383174  0.41554286     0.16400
H1083       H  0.90169588  0.41424565  0.45572743     0.18900
H1084       H  0.83409848  0.47672297  0.42242767     0.12200
C1085       C  0.90524867  0.24805854  0.49454467     0.16100
C1086       C  0.91887441  0.23543250  0.49190627    -0.32900
C1087       C  0.92477017  0.23088859  0.45823014     0.20500
C1088       C  0.91641252  0.23739308  0.42843029     0.02700
C1089       C  0.90228373  0.24943633  0.43108723    -0.22700
C1090       C  0.89749619  0.25512702  0.46467965     0.11900
S1091       S  0.90002005  0.25932622  0.53268500    -0.06300
C1092       C  0.88843132  0.27461463  0.00783250    -0.09800
C1093       C  0.88772768  0.27022181  0.97221858    -0.26400
S1094       S  0.92766846  0.23262522  0.39007930    -0.03600
C1095       C  0.94461652  0.22277907  0.41453474    -0.17000
C1096       C  0.94092625  0.22241126  0.45034272    -0.15000
H1097       H  0.92609177  0.23095329  0.51503615     0.20300
H1098       H  0.89679403  0.25570775  0.40794088     0.16400
H1099       H  0.88212993  0.27923044  0.95263751     0.18900
H1100       H  0.95083323  0.21770157  0.46968962     0.12200
C1101       C  0.06060345  0.19246835  0.23492690     0.16100
C1102       C  0.07102791  0.18156591  0.21371771    -0.32900
C1103       C  0.09569961  0.19677771  0.20249774     0.20500
C1104       C  0.10933509  0.22205290  0.21100549     0.02700
C1105       C  0.09855375  0.23326512  0.23148105    -0.22700
C1106       C  0.07392374  0.21774418  0.24369006     0.11900
S1107       S  0.03256240  0.17582783  0.25535770    -0.06300
C1108       C  0.03857665  0.20295881  0.27653010    -0.09800
C1109       C  0.06106883  0.22404700  0.26736312    -0.26400
S1110       S  0.13994640  0.23639683  0.19741264    -0.03600
C1111       C  0.13417213  0.20781033  0.18095022    -0.17000
C1112       C  0.10967580  0.18862455  0.18506027    -0.15000
H1113       H  0.06083114  0.16166863  0.20792270     0.20300
H1114       H  0.10932432  0.25280817  0.23912298     0.16400
H1115       H  0.06848403  0.24233919  0.27945442     0.18900
H1116       H  0.10273974  0.16931307  0.17731342     0.12200
C1117       C  0.13056341  0.21278736  0.00813106     0.16100
C1118       C  0.11439114  0.22167543  0.99876070    -0.32900
C1119       C  0.10019310  0.21216621  0.46814193     0.20500
C1120       C  0.10229284  0.19489395  0.44720982     0.02700
C1121       C  0.11895581  0.18631868  0.45625375    -0.22700
C1122       C  0.13290132  0.19551746  0.98743214     0.11900
S1123       S  0.14657518  0.21971799  0.04664067    -0.06300
C1124       C  0.15659796  0.19910833  0.03521588    -0.09800
C1125       C  0.14819554  0.18772432  0.00279077    -0.26400
S1126       S  0.08169144  0.18424579  0.41263981    -0.03600
C1127       C  0.07006101  0.20309595  0.42697533    -0.17000
C1128       C  0.08194415  0.21702957  0.45662069    -0.15000
H1129       H  0.11210822  0.23460034  0.01551149     0.20300
H1130       H  0.12018088  0.17232750  0.44053150     0.16400
H1131       H  0.15147480  0.17324325  0.49237439     0.18900
H1132       H  0.07667426  0.22919952  0.47009830     0.12200
C1133       C  0.93861660  0.11211106  0.99864199     0.16100
C1134       C  0.92386283  0.08817761  0.01277236    -0.32900
C1135       C  0.90441773  0.08454695  0.03524240     0.20500
C1136       C  0.89968027  0.10379054  0.04327143     0.02700
C1137       C  0.91478637  0.12791586  0.52963150    -0.22700
C1138       C  0.93434111  0.13159052  0.50717139     0.11900
S1139       S  0.96182525  0.11970777  0.46882891    -0.06300
C1140       C  0.96602973  0.14955833  0.46792164    -0.09800
C1141       C  0.95027406  0.15328460  0.48988833    -0.26400
S1142       S  0.87402943  0.09491414  0.06928055    -0.03600
C1143       C  0.87008269  0.06516166  0.06972512    -0.17000
C1144       C  0.88768325  0.06245017  0.05064368    -0.15000
H1145       H  0.92704821  0.07289138  0.00593810     0.20300
H1146       H  0.91112042  0.14300478  0.53562553     0.16400
H1147       H  0.94966028  0.17054309  0.49175732     0.18900
H1148       H  0.88774356  0.04498060  0.04733365     0.12200
C1149       C  0.87438049  0.06411521  0.26774245     0.16100
C1150       C  0.88926251  0.07531507  0.29770656    -0.32900
C1151       C  0.90588529  0.10143675  0.29716350     0.20500
C1152       C  0.90699255  0.11574066  0.26850724     0.02700
C1153       C  0.89217115  0.10462825  0.23880228    -0.22700
C1154       C  0.87624872  0.07858827  0.23892707     0.11900
S1155       S  0.85415470  0.03254596  0.26167576    -0.06300
C1156       C  0.84908103  0.03917539  0.21963366    -0.09800
C1157       C  0.86197297  0.06441511  0.21136102    -0.26400
S1158       S  0.92866587  0.14681415  0.27200817    -0.03600
C1159       C  0.93710275  0.14068409  0.31220398    -0.17000
C1160       C  0.92325364  0.11571816  0.32245289    -0.15000
H1161       H  0.88848308  0.06410036  0.31996218     0.20300
H1162       H  0.89358796  0.11572424  0.21607084     0.16400
H1163       H  0.86136834  0.07193573  0.18601007     0.18900
H1164       H  0.92621766  0.10833147  0.34656128     0.12200
C1165       C  0.99333632  0.40310833  0.07743858     0.16100
C1166       C  0.01452443  0.42211745  0.09453411    -0.32900
C1167       C  0.03223918  0.41611463  0.10771686     0.20500
C1168       C  0.02961599  0.39256520  0.10315834     0.02700
C1169       C  0.00860013  0.37364974  0.08552652    -0.22700
C1170       C  0.99040442  0.37937719  0.07344283     0.11900
S1171       S  0.96810665  0.40560957  0.06365161    -0.06300
C1172       C  0.95322414  0.37419915  0.05335311    -0.09800
C1173       C  0.96739296  0.36273825  0.05968224    -0.26400
S1174       S  0.05227997  0.38862800  0.12384079    -0.03600
C1175       C  0.06481050  0.41873222  0.13977597    -0.17000
C1176       C  0.05240498  0.43116023  0.12841110    -0.15000
H1177       H  0.01646572  0.44039352  0.09902448     0.20300
H1178       H  0.00588030  0.35492020  0.08298282     0.16400
H1179       H  0.96055681  0.34286684  0.05633666     0.18900
H1180       H  0.05714218  0.44992151  0.13647496     0.12200
C1181       C  0.06959055  0.33150876  0.35278588     0.16100
C1182       C  0.08871166  0.35447519  0.33982670    -0.32900
C1183       C  0.08164384  0.37055053  0.32353355     0.20500
C1184       C  0.05678626  0.36469402  0.32153993     0.02700
C1185       C  0.03771003  0.34197984  0.33519913    -0.22700
C1186       C  0.04468988  0.32540677  0.35006196     0.11900
S1187       S  0.07382167  0.30770632  0.36863667    -0.06300
C1188       C  0.04166503  0.28905575  0.37026890    -0.09800
C1189       C  0.02869353  0.30119037  0.36014592    -0.26400
S1190       S  0.05200494  0.38555281  0.29748664    -0.03600
C1191       C  0.08371083  0.40176392  0.28888047    -0.17000
C1192       C  0.09709269  0.39178879  0.30503369    -0.15000
H1193       H  0.10810401  0.35891765  0.34040273     0.20300
H1194       H  0.01816858  0.33673575  0.33235631     0.16400
H1195       H  0.00844457  0.29217492  0.35820649     0.18900
H1196       H  0.11695272  0.39878055  0.30135451     0.12200
C1197       C  0.23458520  0.44365330  0.35556274     0.16100
C1198       C  0.21599446  0.43335669  0.32939784    -0.32900
C1199       C  0.20787043  0.44904811  0.31472593     0.20500
C1200       C  0.21772112  0.47367465  0.32594983     0.02700
C1201       C  0.23608148  0.48383064  0.35197348    -0.22700
C1202       C  0.24427106  0.46833325  0.36634502     0.11900
S1203       S  0.24835054  0.42861713  0.37537477    -0.06300
C1204       C  0.26742378  0.45609966  0.39777797    -0.09800
C1205       C  0.26290914  0.47549961  0.39060890    -0.26400
S1206       S  0.20613868  0.49005826  0.30516559    -0.03600
C1207       C  0.18774343  0.46363593  0.28062607    -0.17000
C1208       C  0.19048134  0.44308876  0.28841355    -0.15000
H1209       H  0.20856503  0.41421501  0.32048387     0.20300
H1210       H  0.24396445  0.50316723  0.36027176     0.16400
H1211       H  0.27353824  0.49428212  0.40135216     0.18900
H1212       H  0.18050336  0.42501278  0.27547833     0.12200
C1213       C  0.21511871  0.45754848  0.09702690     0.16100
C1214       C  0.22595151  0.45140852  0.06930177    -0.32900
C1215       C  0.25204065  0.46110855  0.07014698     0.20500
C1216       C  0.26678642  0.47582826  0.09768500     0.02700
C1217       C  0.25595101  0.48210890  0.12538051    -0.22700
C1218       C  0.22988820  0.47287782  0.12410587     0.11900
S1219       S  0.18377235  0.44771391  0.10082502    -0.06300
C1220       C  0.19069307  0.46506544  0.13877646    -0.09800
C1221       C  0.21599302  0.47743179  0.14793878    -0.26400
S1222       S  0.29827518  0.48626595  0.09292310    -0.03600
C1223       C  0.29142477  0.47119117  0.05300273    -0.17000
C1224       C  0.26607321  0.45853229  0.04449519    -0.15000
H1225       H  0.21459643  0.43989152  0.04770002     0.20300
H1226       H  0.26737444  0.49403698  0.14663878     0.16400
H1227       H  0.22373852  0.48880054  0.17124970     0.18900
H1228       H  0.25842887  0.44873314  0.02000781     0.12200
C1229       C  0.11269464  0.54235225  0.10466550     0.16100
C1230       C  0.10300330  0.55589136  0.08763951    -0.32900
C1231       C  0.11717615  0.57190941  0.06042771     0.20500
C1232       C  0.13967977  0.57384711  0.05006665     0.02700
C1233       C  0.14905524  0.55983956  0.06648541    -0.22700
C1234       C  0.13522795  0.54438020  0.09431587     0.11900
S1235       S  0.09959803  0.52386646  0.14044793    -0.06300
C1236       C  0.12497515  0.51919182  0.14186553    -0.09800
C1237       C  0.14232052  0.53101721  0.11545698    -0.26400
S1238       S  0.15541100  0.59619517  0.01926804    -0.03600
C1239       C  0.13167964  0.60338774  0.02077973    -0.17000
C1240       C  0.11227726  0.58860774  0.04328470    -0.15000
H1241       H  0.08577372  0.55485752  0.09627128     0.20300
H1242       H  0.16692479  0.56183339  0.05902507     0.16400
H1243       H  0.15954283  0.53045557  0.11248689     0.18900
H1244       H  0.09642977  0.59117593  0.04868278     0.12200
C1245       C  0.12731368  0.55294185  0.32567419     0.16100
C1246       C  0.12026664  0.56411155  0.35188667    -0.32900
C1247       C  0.13184875  0.59037778  0.35220844     0.20500
C1248       C  0.14934468  0.60499032  0.32724120     0.02700
C1249       C  0.15643064  0.59379779  0.30103027    -0.22700
C1250       C  0.14518889  0.56751620  0.30110894     0.11900
S1251       S  0.11540579  0.52134463  0.32066884    -0.06300
C1252       C  0.13502398  0.52782079  0.28541348    -0.09800
C1253       C  0.14983710  0.55320822  0.27813660    -0.26400
S1254       S  0.16201642  0.63666926  0.33336087    -0.03600
C1255       C  0.14391622  0.63000097  0.37027779    -0.17000
C1256       C  0.12875082  0.60464959  0.37697286    -0.15000
H1257       H  0.10663481  0.55285431  0.37149439     0.20300
H1258       H  0.17040571  0.60508082  0.28181645     0.16400
H1259       H  0.16283231  0.56076299  0.25654240     0.18900
H1260       H  0.11698117  0.59712448  0.39981630     0.12200
O1261       O  0.08411582  0.44633209  0.68602502    -0.81600
C1262       C  0.17124868  0.46426774  0.75338671     0.97700
O1263       O  0.15904643  0.44560178  0.73273280    -0.70800
O1264       O  0.11108904  0.41937022  0.74200262    -0.74300
Al1265     Al  0.12980202  0.43630112  0.70272608     1.49000
C1266       C  0.09508570  0.42060258  0.76077102     0.93000
O1267       O  0.11674597  0.48588412  0.76462978    -0.80600
O1268       O  0.14828374  0.50333269  0.67062830    -0.74100
Al1269     Al  0.10253999  0.46568885  0.72384666     1.90100
O1270       O  0.15057213  0.51392140  0.73925019    -0.73200
O1271       O  0.17796031  0.48335361  0.68250627    -0.73000
O1272       O  0.17028975  0.48434021  0.75060295    -0.78700
O1273       O  0.14911560  0.44816626  0.66077161    -0.76900
O1274       O  0.13012959  0.46478767  0.71246359    -1.13000
O1275       O  0.10039825  0.42287148  0.67230771    -0.72200
C1276       C  0.08428730  0.42969669  0.66732469     0.98500
C1277       C  0.13432665  0.50813514  0.76259258     0.94900
Al1278     Al  0.15915014  0.49361507  0.71084531     1.55600
O1279       O  0.08902068  0.43716404  0.75528085    -0.76900
C1280       C  0.17148407  0.46569355  0.66115981     0.99000
C1281       C  0.12829582  0.50464479  0.66975054     0.93900
O1282       O  0.11128638  0.49411228  0.69297822    -0.82200
O1283       O  0.98768712  0.19065952  0.94465167    -0.81600
C1284       C  0.02311025  0.20149209  0.80662451     0.97700
O1285       O  0.01431561  0.18182317  0.82500614    -0.70800
O1286       O  0.03650239  0.18829004  0.88603790    -0.74300
Al1287     Al  0.00237123  0.17412982  0.87192035     1.49000
C1288       C  0.04715319  0.20180058  0.91241415     0.93000
O1289       O  0.03466049  0.25076935  0.89758139    -0.80600
O1290       O  0.96316817  0.21075685  0.86942417    -0.74100
Al1291     Al  0.01059195  0.21914942  0.91853878     1.90100
O1292       O  0.00985895  0.24874801  0.85513826    -0.73200
O1293       O  0.96882833  0.18274291  0.82106188    -0.73000
O1294       O  0.01842284  0.21887426  0.81374675    -0.78700
O1295       O  0.96805508  0.15515858  0.85741059    -0.76900
O1296       O  0.00150916  0.20252866  0.87796475    -1.13000
O1297       O  0.99064387  0.16096915  0.91720202    -0.72200
C1298       C  0.98257187  0.16817956  0.94226232     0.98500
C1299       C  0.02842713  0.26151510  0.87473231     0.94900
Al1300     Al  0.99103549  0.21426958  0.84288295     1.55600
O1301       O  0.03774622  0.21331035  0.92780611    -0.76900
C1302       C  0.95881762  0.16045212  0.83164466     0.99000
C1303       C  0.96497105  0.21985730  0.89975821     0.93900
O1304       O  0.98467547  0.22746586  0.91798883    -0.82200
O1305       O  0.85700243  0.31715295  0.97416035    -0.81600
C1306       C  0.86700553  0.35552497  0.61017364     0.97700
O1307       O  0.84704271  0.34648636  0.59196244    -0.70800
O1308       O  0.85453520  0.36735073  0.53036585    -0.74300
Al1309     Al  0.83959257  0.33361062  0.54480464     1.49000
C1310       C  0.86795675  0.37760067  0.00407016     0.93000
O1311       O  0.91553934  0.36512116  0.52301029    -0.80600
O1312       O  0.87510228  0.29339288  0.55098021    -0.74100
Al1313     Al  0.88492159  0.34064627  0.50065316     1.90100
O1314       O  0.91355952  0.34025512  0.56521856    -0.73200
O1315       O  0.84691322  0.30046188  0.59723388    -0.73000
O1316       O  0.88365603  0.34965968  0.60414317    -0.78700
O1317       O  0.81980360  0.29966460  0.55966045    -0.76900
O1318       O  0.86768425  0.33207732  0.54041304    -1.13000
O1319       O  0.82710175  0.32127295  0.49892410    -0.72200
C1320       C  0.83457236  0.31232039  0.97518982     0.98500
C1321       C  0.92611706  0.35935544  0.54666214     0.94900
Al1322     Al  0.87879639  0.32179868  0.57639539     1.55600
O1323       O  0.87919767  0.36780021  0.98893889    -0.76900
C1324       C  0.82467533  0.29079951  0.58616926     0.99000
C1325       C  0.88520463  0.29508533  0.52156385     0.93900
O1326       O  0.89353339  0.31481115  0.50334278    -0.82200
O1327       O  0.88950493  0.56911114  0.75012313    -0.81600
C1328       C  0.86025086  0.50315209  0.86180336     0.97700
O1329       O  0.86444177  0.52552008  0.86554022    -0.70800
O1330       O  0.90655649  0.55630782  0.83647224    -0.74300
Al1331     Al  0.87448482  0.55192397  0.83047181     1.49000
C1332       C  0.92277699  0.55712883  0.81588555     0.93000
O1333       O  0.88686571  0.50657236  0.75742688    -0.80600
O1334       O  0.82447939  0.50998722  0.75869626    -0.74100
Al1335     Al  0.88644221  0.53765607  0.75729785     1.90100
O1336       O  0.84696943  0.48258374  0.76589476    -0.73200
O1337       O  0.82014432  0.51035181  0.82772571    -0.73000
O1338       O  0.85121749  0.49103330  0.83370803    -0.78700
O1339       O  0.84283121  0.55094538  0.82998058    -0.76900
O1340       O  0.86670426  0.53058617  0.79457714    -1.13000
O1341       O  0.88692738  0.58203609  0.80246017    -0.72200
C1342       C  0.89087824  0.58592924  0.77004293     0.98500
C1343       C  0.86744614  0.48535456  0.75537186     0.94900
Al1344     Al  0.83825675  0.50114235  0.79644717     1.55600
O1345       O  0.91765481  0.55163274  0.78380655    -0.76900
C1346       C  0.82218453  0.53125322  0.83463328     0.99000
C1347       C  0.83494521  0.51800114  0.72936459     0.93900
O1348       O  0.85820380  0.52561273  0.72477728    -0.82200
O1349       O  0.11847609  0.69184117  0.00097310    -0.81600
C1350       C  0.14808487  0.64879396  0.89701359     0.97700
O1351       O  0.14419215  0.66690573  0.89067887    -0.70800
O1352       O  0.10113997  0.65732509  0.91617292    -0.74300
Al1353     Al  0.13352481  0.68478692  0.92250686     1.49000
C1354       C  0.08400678  0.64403872  0.93725133     0.93000
O1355       O  0.11620682  0.62972263  0.50036692    -0.80600
O1356       O  0.18068005  0.69297371  0.99987469    -0.74100
Al1357     Al  0.11894749  0.66196688  0.99752728     1.90100
O1358       O  0.15593516  0.64255100  0.99450080    -0.73200
O1359       O  0.18732712  0.69624691  0.93178156    -0.73000
O1360       O  0.15524820  0.64601411  0.92676234    -0.78700
O1361       O  0.16558226  0.71483987  0.92308198    -0.76900
O1362       O  0.13967994  0.67219373  0.96107487    -1.13000
O1363       O  0.12111280  0.70417352  0.94670752    -0.72200
C1364       C  0.11783814  0.70646027  0.97883486     0.98500
C1365       C  0.13446859  0.62609506  0.50394923     0.94900
Al1366     Al  0.16733753  0.66969540  0.96296075     1.55600
O1367       O  0.08829369  0.64566747  0.96986130    -0.76900
C1368       C  0.18617757  0.71515773  0.92213912     0.99000
C1369       C  0.16964367  0.69180938  0.52820029     0.93900
O1370       O  0.14610937  0.67729642  0.53168721    -0.82200
O1371       O  0.99451614  0.76508241  0.66615704    -0.81600
C1372       C  0.01369749  0.82787757  0.55482602     0.97700
O1373       O  0.99686227  0.80460321  0.55376028    -0.70800
O1374       O  0.00940732  0.77389159  0.58048563    -0.74300
Al1375     Al  0.98296347  0.77919490  0.59087280     1.49000
C1376       C  0.03003568  0.77902542  0.59395131     0.93000
O1377       O  0.04655777  0.83121334  0.65382422    -0.80600
O1378       O  0.97856403  0.82023157  0.66390545    -0.74100
Al1379     Al  0.01809650  0.79833400  0.65645703     1.90100
O1380       O  0.02666636  0.85172506  0.65045989    -0.73200
O1381       O  0.96920463  0.82002432  0.59568561    -0.73000
O1382       O  0.01812148  0.84100756  0.58242201    -0.78700
O1383       O  0.95232400  0.77972995  0.59535715    -0.76900
O1384       O  0.99982486  0.80235090  0.62357577    -1.13000
O1385       O  0.96779517  0.75095755  0.62266601    -0.72200
C1386       C  0.97495099  0.74790768  0.65238407     0.98500
C1387       C  0.04616124  0.85119104  0.65772304     0.94900
Al1388     Al  0.99829040  0.83055589  0.62315724     1.55600
O1389       O  0.03622112  0.78890968  0.62407541    -0.76900
C1390       C  0.95056134  0.79886980  0.59032032     0.99000
C1391       C  0.98339640  0.81189531  0.69152208     0.93900
O1392       O  0.00114396  0.80668368  0.69303842    -0.82200
O1393       O  0.33697283  0.86421170  0.78581010    -0.81600
C1394       C  0.35670964  0.85708204  0.64864117     0.97700
O1395       O  0.35918870  0.84853423  0.67753198    -0.70800
O1396       O  0.36585624  0.84921890  0.74574006    -0.74300
Al1397     Al  0.33753340  0.83978451  0.71603855     1.49000
C1398       C  0.38453410  0.87026677  0.75269613     0.93000
O1399       O  0.36950910  0.92081068  0.72345538    -0.80600
O1400       O  0.30914044  0.89120447  0.70544658    -0.74100
Al1401     Al  0.35251299  0.89058535  0.75102862     1.90100
O1402       O  0.35397537  0.90806427  0.67104194    -0.73200
O1403       O  0.29427186  0.84645856  0.67907561    -0.73000
O1404       O  0.34108160  0.86481897  0.64480206    -0.78700
O1405       O  0.30919370  0.82139962  0.68631978    -0.76900
O1406       O  0.33857465  0.86939301  0.71504137    -1.13000
O1407       O  0.31565747  0.82943346  0.75455006    -0.72200
C1408       C  0.31943404  0.84153374  0.78280714     0.98500
C1409       C  0.36914095  0.92492893  0.69117463     0.94900
Al1410     Al  0.32566914  0.87694521  0.67830982     1.55600
O1411       O  0.38302118  0.88976786  0.74944739    -0.76900
C1412       C  0.29179419  0.82502547  0.67635966     0.97200
C1413       C  0.30975593  0.89636960  0.73764604     0.93900
O1414       O  0.32496460  0.89485563  0.75801039    -0.82200
O1415       O  0.18972708  0.99658997  0.80847841    -0.81600
C1416       C  0.17994957  0.01482934  0.94576324     0.97700
O1417       O  0.17099781  0.01611790  0.91657093    -0.70800
O1418       O  0.17286949  0.02350357  0.84850923    -0.74300
Al1419     Al  0.16427516  0.99511216  0.87771748     1.49000
C1420       C  0.19348167  0.04263751  0.84116541     0.93000
O1421       O  0.24593490  0.03020684  0.87100920    -0.80600
O1422       O  0.21966044  0.97192726  0.89116777    -0.74100
Al1423     Al  0.21565702  0.01232930  0.84385669     1.90100
O1424       O  0.23435876  0.01718071  0.92440563    -0.73200
O1425       O  0.17411067  0.95448952  0.91780413    -0.73000
O1426       O  0.19006089  0.00133619  0.95016026    -0.78700
O1427       O  0.14683598  0.96612893  0.90599664    -0.76900
O1428       O  0.19476395  0.99816917  0.87988611    -1.13000
O1429       O  0.15532296  0.97355987  0.83888404    -0.72200
C1430       C  0.16744520  0.97841435  0.81074218     0.98500
C1431       C  0.25069760  0.03173988  0.90328781     0.94900
Al1432     Al  0.20373054  0.98713749  0.91752426     1.55600
O1433       O  0.21364561  0.04236433  0.84538241    -0.76900
C1434       C  0.15174975  0.94994626  0.91743411     0.99000
C1435       C  0.22386208  0.97136518  0.85883878     0.93900
O1436       O  0.22053861  0.98491334  0.83741873    -0.82200
O1437       O  0.47087893  0.14238502  0.96861713    -0.81600
C1438       C  0.49770965  0.14275418  0.60448055     0.97700
O1439       O  0.50902909  0.14963641  0.57554311    -0.70800
O1440       O  0.51469339  0.15083796  0.50720614    -0.74300
Al1441     Al  0.49943883  0.16308921  0.53821681     1.49000
C1442       C  0.50918172  0.12916244  0.99793504     0.93000
O1443       O  0.44308700  0.08525410  0.53026285    -0.80600
O1444       O  0.41864062  0.12229385  0.54931188    -0.74100
Al1445     Al  0.45805297  0.11535188  0.50233814     1.90100
O1446       O  0.44106484  0.09895633  0.58241922    -0.73200
O1447       O  0.45389186  0.16550089  0.57475280    -0.73000
O1448       O  0.47609983  0.14036645  0.60890485    -0.78700
O1449       O  0.49437418  0.18411579  0.56963746    -0.76900
O1450       O  0.46848024  0.13657408  0.53861460    -1.13000
O1451       O  0.49093399  0.17724644  0.50051764    -0.72200
C1452       C  0.48056646  0.16602779  0.97219461     0.98500
C1453       C  0.43849051  0.08154985  0.56259034     0.94900
Al1454     Al  0.44900764  0.13215765  0.57557176     1.55600
O1455       O  0.48703886  0.11151408  0.00091642    -0.76900
C1456       C  0.47511143  0.18460007  0.57904958     0.99000
C1457       C  0.41286501  0.11681249  0.51751689     0.93900
O1458       O  0.42769943  0.11506480  0.49689024    -0.82200
O1459       O  0.76569323  0.98522967  0.58383610    -0.81600
C1460       C  0.83471385  0.02021873  0.69267509     0.97700
O1461       O  0.81190855  0.00332304  0.69780546    -0.70800
O1462       O  0.78162221  0.01646488  0.67041536    -0.74300
Al1463     Al  0.78392324  0.98770847  0.66410116     1.49000
C1464       C  0.78022782  0.03149724  0.64973811     0.93000
O1465       O  0.82880365  0.04347605  0.59244721    -0.80600
O1466       O  0.82009429  0.97477237  0.59033165    -0.74100
Al1467     Al  0.79732911  0.01305333  0.59074137     1.90100
O1468       O  0.85105160  0.02500202  0.59490537    -0.73200
O1469       O  0.82283650  0.97141630  0.65907007    -0.73000
O1470       O  0.84539537  0.02205751  0.66369307    -0.78700
O1471       O  0.78265242  0.95618696  0.66373647    -0.76900
O1472       O  0.80419961  0.99968696  0.62734992    -1.13000
O1473       O  0.75300523  0.97103217  0.63682108    -0.72200
C1474       C  0.74896776  0.97038205  0.60420140     0.98500
C1475       C  0.84907981  0.04377835  0.58707811     0.94900
Al1476     Al  0.83245979  0.99840019  0.62713557     1.55600
O1477       O  0.78429209  0.03090373  0.61743961    -0.76900
C1478       C  0.80159981  0.95378896  0.66751699     0.99000
C1479       C  0.81281415  0.97862367  0.56115210     0.93900
O1480       O  0.80845231  0.99667992  0.55687879    -0.82200
O1481       O  0.56995350  0.89673404  0.00207401    -0.81600
C1482       C  0.50643752  0.85408979  0.88995340     0.97700
O1483       O  0.53020630  0.86329824  0.88821128    -0.70800
O1484       O  0.55936679  0.90648976  0.91655338    -0.74300
Al1485     Al  0.55626335  0.87505741  0.92405382     1.49000
C1486       C  0.55435575  0.92109127  0.93293309     0.93000
O1487       O  0.50298925  0.88113068  0.48986695    -0.80600
O1488       O  0.51914866  0.82659388  0.99607374    -0.74100
Al1489     Al  0.53659493  0.88693395  0.99270519     1.90100
O1490       O  0.48492107  0.84077549  0.98679306    -0.73200
O1491       O  0.51840755  0.81897476  0.92780710    -0.73000
O1492       O  0.49405053  0.84402665  0.91758922    -0.78700
O1493       O  0.55818841  0.84498548  0.92442714    -0.76900
O1494       O  0.53348361  0.86622080  0.95785461    -1.13000
O1495       O  0.58488919  0.88824164  0.95537057    -0.72200
C1496       C  0.58746734  0.89592676  0.98664269     0.98500
C1497       C  0.48418800  0.86004749  0.49524677     0.94900
Al1498     Al  0.50662277  0.83551574  0.95707462     1.55600
O1499       O  0.54539335  0.91577512  0.96343400    -0.76900
C1500       C  0.53994476  0.82332655  0.92025389     0.99000
C1501       C  0.52633329  0.83887375  0.52450259     0.93900
O1502       O  0.52905895  0.86081966  0.52767896    -0.82200
O1503       O  0.68275919  0.11328702  0.74410165    -0.81600
C1504       C  0.64422171  0.14126268  0.85744529     0.97700
O1505       O  0.66092198  0.13497940  0.86078704    -0.70800
O1506       O  0.64658139  0.09299912  0.82918154    -0.74300
Al1507     Al  0.67612360  0.12382406  0.82587925     1.49000
C1508       C  0.63307690  0.07738707  0.80630753     0.93000
O1509       O  0.62209113  0.11493957  0.75136253    -0.80600
O1510       O  0.68877569  0.17626455  0.75674624    -0.74100
Al1511     Al  0.65346879  0.11543245  0.75061796     1.90100
O1512       O  0.63819831  0.15489138  0.76158200    -0.73200
O1513       O  0.69184467  0.17873123  0.82528130    -0.73000
O1514       O  0.64139237  0.15021424  0.82920171    -0.78700
O1515       O  0.70791768  0.15423930  0.82793551    -0.76900
O1516       O  0.66488277  0.13369039  0.78971171    -1.13000
O1517       O  0.69252549  0.11001427  0.79827017    -0.72200
C1518       C  0.69537949  0.10872274  0.76576230     0.98500
C1519       C  0.62014267  0.13435765  0.75145012     0.94900
Al1520     Al  0.66505930  0.16259079  0.79282354     1.55600
O1521       O  0.63599983  0.08312222  0.77416817    -0.76900
C1522       C  0.70956983  0.17515772  0.83373934     0.99000
C1523       C  0.68638736  0.16699714  0.72648630     0.93900
O1524       O  0.66937695  0.14457434  0.71965443    -0.82200
O1525       O  0.44512377  0.34815923  0.83376772    -0.81600
C1526       C  0.48349850  0.31833756  0.72371528     0.97700
O1527       O  0.47670237  0.33477482  0.72076495    -0.70800
O1528       O  0.43362185  0.32394701  0.74568875    -0.74300
Al1529     Al  0.46556945  0.35059837  0.75535893     1.49000
C1530       C  0.41638095  0.30695367  0.76315706     0.93000
O1531       O  0.44929038  0.28977809  0.82292391    -0.80600
O1532       O  0.51098100  0.35550504  0.83241877    -0.74100
Al1533     Al  0.44922939  0.32062793  0.82539322     1.90100
O1534       O  0.48965299  0.30580435  0.82024627    -0.73200
O1535       O  0.52040413  0.36389659  0.76455558    -0.73000
O1536       O  0.49128117  0.31455499  0.75247457    -0.78700
O1537       O  0.49704757  0.38082713  0.75852403    -0.76900
O1538       O  0.47142674  0.33541400  0.79098666    -1.13000
O1539       O  0.45279613  0.36794317  0.78386577    -0.72200
C1540       C  0.44618184  0.36558038  0.81558702     0.98500
C1541       C  0.46835784  0.28764676  0.82710155     0.94900
Al1542     Al  0.50037802  0.33499603  0.79232430     1.55600
O1543       O  0.41963969  0.30434348  0.79525864    -0.76900
C1544       C  0.51802364  0.38226162  0.75593392     0.99000
C1545       C  0.49864864  0.35137005  0.86040345     0.93900
O1546       O  0.47527877  0.33518751  0.86178598    -0.82200
O1547       O  0.23408732  0.21499590  0.67423189    -0.81600
C1548       C  0.16798599  0.19095854  0.56218805     0.97700
O1549       O  0.18939016  0.19271299  0.55812192    -0.70800
O1550       O  0.22189804  0.23437832  0.58703785    -0.74300
Al1551     Al  0.21606246  0.20212099  0.59347345     1.49000
C1552       C  0.22569424  0.25157966  0.60803356     0.93000
O1553       O  0.17623262  0.22053623  0.66551383    -0.80600
O1554       O  0.17159556  0.15416708  0.66530427    -0.74100
Al1555     Al  0.20469061  0.21599864  0.66681056     1.90100
O1556       O  0.14827529  0.18133063  0.65793398    -0.73200
O1557       O  0.17206337  0.14926421  0.59645115    -0.73000
O1558       O  0.15628561  0.18350298  0.59061790    -0.78700
O1559       O  0.21293550  0.16982608  0.59511677    -0.76900
O1560       O  0.19547877  0.19603316  0.62950997    -1.13000
O1561       O  0.24672676  0.21399082  0.62121037    -0.72200
C1562       C  0.25080343  0.21688757  0.65385710     0.98500
C1563       C  0.15386426  0.20316759  0.66705672     0.94900
Al1564     Al  0.16469335  0.16931353  0.62766174     1.55600
O1565       O  0.22171190  0.24723736  0.64049193    -0.76900
C1566       C  0.19248783  0.15001077  0.58971380     0.99000
C1567       C  0.18026858  0.16422257  0.69475230     0.93900
O1568       O  0.18986764  0.18781388  0.69952548    -0.82200
O1569       O  0.35652978  0.44798025  0.92312824    -0.81600
C1570       C  0.31045735  0.47505862  0.52666085     0.97700
O1571       O  0.32892439  0.47173007  0.53357751    -0.70800
O1572       O  0.31874191  0.42871583  0.00741555    -0.74300
Al1573     Al  0.34672926  0.46044433  0.00196569     1.49000
C1574       C  0.30742963  0.41135174  0.98561026     0.93000
O1575       O  0.29320437  0.44224148  0.92377213    -0.80600
O1576       O  0.35580612  0.50803156  0.92546861    -0.74100
Al1577     Al  0.32582513  0.44649598  0.92632052     1.90100
O1578       O  0.30506796  0.48194114  0.92824156    -0.73200
O1579       O  0.35831429  0.51413031  0.99426968    -0.73000
O1580       O  0.30760461  0.48158349  0.99653282    -0.78700
O1581       O  0.37680591  0.49202402  0.50155819    -0.76900
O1582       O  0.33488857  0.46685086  0.96316537    -1.13000
O1583       O  0.36585716  0.44703434  0.97815289    -0.72200
C1584       C  0.36955814  0.44520053  0.94590200     0.98500
C1585       C  0.28930180  0.46010074  0.91829654     0.94900
Al1586     Al  0.33193378  0.49417666  0.96138319     1.55600
O1587       O  0.31079562  0.41553907  0.95308144    -0.76900
C1588       C  0.37712276  0.51255654  0.50398985     0.99000
C1589       C  0.35484750  0.49720152  0.89688556     0.93900
O1590       O  0.34008136  0.47376941  0.89268655    -0.82200
O1591       O  0.52369408  0.66512028  0.63948899    -0.81600
C1592       C  0.52324685  0.68697528  0.77801984     0.97700
O1593       O  0.51568441  0.69171833  0.74978987    -0.70800
O1594       O  0.51236771  0.69759288  0.68228557    -0.74300
Al1595     Al  0.50306435  0.66975485  0.71126727     1.49000
C1596       C  0.53286681  0.71500084  0.67175086     0.93000
O1597       O  0.58203037  0.69807889  0.70066829    -0.80600
O1598       O  0.54990711  0.63536590  0.71618167    -0.74100
Al1599     Al  0.55151009  0.68100900  0.67270393     1.90100
O1600       O  0.56975966  0.67991450  0.75183400    -0.73200
O1601       O  0.50527912  0.62261199  0.74370619    -0.73000
O1602       O  0.52774133  0.66893605  0.78037153    -0.78700
O1603       O  0.48430575  0.64236086  0.74123022    -0.76900
O1604       O  0.53101975  0.66780963  0.70935566    -1.13000
O1605       O  0.48950200  0.64824755  0.67268184    -0.72200
C1606       C  0.50016985  0.65044850  0.64358583     0.98500
C1607       C  0.58618412  0.69650633  0.73281464     0.94900
Al1608     Al  0.53764014  0.65290173  0.74474132     1.55600
O1609       O  0.55194425  0.71254290  0.67275729    -0.76900
C1610       C  0.48548700  0.62329323  0.74955385     0.99000
C1611       C  0.55587218  0.63678673  0.68433231     0.93900
O1612       O  0.55546404  0.65298048  0.66491468    -0.82200
O1613       O  0.66675999  0.52702269  0.61293102    -0.81600
C1614       C  0.68577517  0.51754209  0.97520621     0.97700
O1615       O  0.68866876  0.50970019  0.50436722    -0.70800
O1616       O  0.69632162  0.51147440  0.57239519    -0.74300
Al1617     Al  0.66765797  0.50173395  0.54339629     1.49000
C1618       C  0.71456707  0.53231267  0.58119630     0.93000
O1619       O  0.70046236  0.58254281  0.54889313    -0.80600
O1620       O  0.63968413  0.55386830  0.53055130    -0.74100
Al1621     Al  0.68264334  0.55295695  0.57748250     1.90100
O1622       O  0.68483464  0.56972198  0.49649431    -0.73200
O1623       O  0.62428872  0.50835577  0.00568485    -0.73000
O1624       O  0.67055948  0.52571384  0.97128982    -0.78700
O1625       O  0.63863761  0.48294179  0.51489159    -0.76900
O1626       O  0.66871012  0.53137296  0.54177079    -1.13000
O1627       O  0.64668156  0.49167634  0.58259914    -0.72200
C1628       C  0.65078118  0.50372085  0.61091320     0.98500
C1629       C  0.70066231  0.58635580  0.51639776     0.94900
Al1630     Al  0.65592314  0.53875776  0.50440355     1.55600
O1631       O  0.71315633  0.55185796  0.57771924    -0.76900
C1632       C  0.62136418  0.48663634  0.00445488     0.99000
C1633       C  0.64009300  0.55937215  0.56256017     0.93900
O1634       O  0.65515994  0.55788667  0.58331959    -0.82200
O1635       O  0.80708322  0.80207740  0.94514665    -0.81600
C1636       C  0.81528924  0.83166056  0.80885434     0.97700
O1637       O  0.82196426  0.84268007  0.83807891    -0.70800
O1638       O  0.81967400  0.84822325  0.90578258    -0.74300
Al1639     Al  0.83202941  0.83159067  0.87725437     1.49000
C1640       C  0.79819471  0.84330224  0.91501784     0.93000
O1641       O  0.75256908  0.77871124  0.87827449    -0.80600
O1642       O  0.78839210  0.75099657  0.86316465    -0.74100
Al1643     Al  0.78160049  0.79139119  0.90903192     1.90100
O1644       O  0.76771135  0.77513054  0.82824627    -0.73200
O1645       O  0.83254888  0.78482285  0.84011149    -0.73000
O1646       O  0.81037157  0.80913667  0.80468848    -0.78700
O1647       O  0.85372372  0.82495127  0.84931035    -0.76900
O1648       O  0.80433256  0.80129532  0.87466272    -1.13000
O1649       O  0.84333191  0.82217195  0.91685885    -0.72200
C1650       C  0.83082579  0.81182011  0.94408268     0.98500
C1651       C  0.74995762  0.77376700  0.84587229     0.94900
Al1652     Al  0.80012151  0.78172932  0.83746571     1.55600
O1653       O  0.78000434  0.82151207  0.91113243    -0.76900
C1654       C  0.85291910  0.80517455  0.83908073     0.99000
C1655       C  0.78106949  0.74493677  0.89422723     0.93900
O1656       O  0.77874569  0.75983027  0.91414086    -0.82200
C1657       C  0.74586702  0.65395161  0.98683943     0.16100
C1658       C  0.76009683  0.68015307  0.98441832    -0.32900
C1659       C  0.76406923  0.69087030  0.95099373     0.20500
C1660       C  0.75514613  0.67622537  0.92105860     0.02700
C1661       C  0.74123772  0.64997069  0.92343623    -0.22700
C1662       C  0.73648111  0.63929045  0.95699302     0.11900
S1663       S  0.73643903  0.63751515  0.52519415    -0.06300
C1664       C  0.71889641  0.61069125  0.50084244    -0.09800
C1665       C  0.72115477  0.61446578  0.96487687    -0.26400
S1666       S  0.76063193  0.69305277  0.88318870    -0.03600
C1667       C  0.77436334  0.72002418  0.90814483    -0.17000
C1668       C  0.77506495  0.71593879  0.94372575    -0.15000
H1669       H  0.76675365  0.69175533  0.00769947     0.20300
H1670       H  0.73344394  0.63843468  0.90027625     0.16400
H1671       H  0.71110645  0.59994288  0.94547846     0.18900
H1672       H  0.78226274  0.73057504  0.96346807     0.12200
C1673       C  0.64310975  0.73355295  0.79260255     0.16100
C1674       C  0.65915659  0.74249168  0.82185623    -0.32900
C1675       C  0.68482589  0.75160206  0.81644354     0.20500
C1676       C  0.69397244  0.75209592  0.78317378     0.02700
C1677       C  0.67801079  0.74355579  0.75389171    -0.22700
C1678       C  0.65233379  0.73411492  0.75935824     0.11900
S1679       S  0.61126746  0.71930456  0.79440836    -0.06300
C1680       C  0.61024336  0.71373725  0.74998967    -0.09800
C1681       C  0.63355408  0.72305211  0.73459649    -0.26400
S1682       S  0.72524123  0.76243958  0.78190983    -0.03600
C1683       C  0.72626774  0.76602874  0.82677587    -0.17000
C1684       C  0.70335537  0.75974806  0.84173251    -0.15000
H1685       H  0.65181238  0.74155228  0.84785554     0.20300
H1686       H  0.68521593  0.74351048  0.72811775     0.16400
H1687       H  0.63651367  0.72032318  0.70742376     0.18900
H1688       H  0.70028345  0.76036885  0.86950287     0.12200
C1689       C  0.59690749  0.58564691  0.59013662     0.16100
C1690       C  0.58181174  0.59687106  0.59241756    -0.32900
C1691       C  0.57744937  0.60356875  0.62588380     0.20500
C1692       C  0.58723874  0.59886379  0.65576221     0.02700
C1693       C  0.60225017  0.58767236  0.65346310    -0.22700
C1694       C  0.60695865  0.58140376  0.62009296     0.11900
S1695       S  0.60564584  0.57709145  0.55212083    -0.06300
C1696       C  0.62335659  0.56813517  0.57698211    -0.09800
C1697       C  0.62201796  0.57145158  0.61273241    -0.26400
S1698       S  0.58054736  0.60909562  0.69377450    -0.03600
C1699       C  0.56477282  0.62039361  0.66929836    -0.17000
C1700       C  0.56462465  0.61601069  0.63350459    -0.15000
H1701       H  0.57426437  0.60072193  0.56911877     0.20300
H1702       H  0.61039570  0.58447845  0.67668480     0.16400
H1703       H  0.63202720  0.56722286  0.63249230     0.18900
H1704       H  0.55624277  0.62233928  0.61397046     0.12200
C1705       C  0.40495734  0.53202853  0.82716093     0.16100
C1706       C  0.42572297  0.54086554  0.80463081    -0.32900
C1707       C  0.43724386  0.56611212  0.79405968     0.20500
C1708       C  0.42789440  0.58141434  0.80480105     0.02700
C1709       C  0.40742204  0.57270655  0.82735771    -0.22700
C1710       C  0.39644640  0.54786698  0.83860587     0.11900
S1711       S  0.38906997  0.50255707  0.84474574    -0.06300
C1712       C  0.37160324  0.51221051  0.86850790    -0.09800
C1713       C  0.37752595  0.53671241  0.86247866    -0.26400
S1714       S  0.44381253  0.61117039  0.78947127    -0.03600
C1715       C  0.46396079  0.60354588  0.76876888    -0.17000
C1716       C  0.45833474  0.57887592  0.77349292    -0.15000
H1717       H  0.43287348  0.52879139  0.79636312     0.20300
H1718       H  0.40067455  0.58497062  0.83636260     0.16400
H1719       H  0.36896461  0.54610531  0.87575305     0.18900
H1720       H  0.46899865  0.57083009  0.76266307     0.12200
C1721       C  0.44828869  0.60866153  0.58021109     0.16100
C1722       C  0.42477844  0.59423331  0.56435476    -0.32900
C1723       C  0.42005146  0.57218351  0.54718377     0.20500
C1724       C  0.43798797  0.56482246  0.54553184     0.02700
C1725       C  0.46185145  0.57966243  0.56063295    -0.22700
C1726       C  0.46653507  0.60170841  0.57812534     0.11900
S1727       S  0.45609476  0.63400273  0.60625789    -0.06300
C1728       C  0.48431965  0.63546853  0.61437989    -0.09800
C1729       C  0.48758075  0.61740300  0.59732823    -0.26400
S1730       S  0.42763257  0.53630626  0.52581153    -0.03600
C1731       C  0.39899390  0.53455347  0.51951970    -0.17000
C1732       C  0.39778803  0.55505548  0.53204121    -0.15000
H1733       H  0.41039862  0.59943929  0.56655017     0.20300
H1734       H  0.47579225  0.57380190  0.55994011     0.16400
H1735       H  0.50349392  0.61462328  0.60119563     0.18900
H1736       H  0.38118579  0.55693832  0.03116719     0.12200
C1737       C  0.25325763  0.32023153  0.57863194     0.16100
C1738       C  0.26430655  0.34634141  0.57570432    -0.32900
C1739       C  0.27216340  0.35692969  0.54235880     0.20500
C1740       C  0.26892058  0.34230186  0.51305976     0.02700
C1741       C  0.25763992  0.31620961  0.51592561    -0.22700
C1742       C  0.25009445  0.30567854  0.54929619     0.11900
S1743       S  0.24361792  0.30360707  0.61694842    -0.06300
C1744       C  0.23542902  0.27683861  0.59304479    -0.09800
C1745       C  0.23983970  0.28090938  0.55737906    -0.26400
S1746       S  0.28102344  0.35896581  0.97533015    -0.03600
C1747       C  0.29094957  0.38596837  0.99944230    -0.17000
C1748       C  0.28463704  0.38193690  0.53463682    -0.15000
H1749       H  0.26722683  0.35795932  0.59850698     0.20300
H1750       H  0.25539643  0.30465563  0.49328970     0.16400
H1751       H  0.23618544  0.26645280  0.53824476     0.18900
H1752       H  0.28976754  0.39664966  0.55391756     0.12200
C1753       C  0.54518397  0.39017025  0.93236412     0.16100
C1754       C  0.56654602  0.40205750  0.95392184    -0.32900
C1755       C  0.57415336  0.42650445  0.96558662     0.20500
C1756       C  0.56090742  0.43849876  0.95668746     0.02700
C1757       C  0.53920687  0.42638714  0.93573608    -0.22700
C1758       C  0.53177388  0.40204536  0.92364794     0.11900
S1759       S  0.53494193  0.36198777  0.91173871    -0.06300
C1760       C  0.51218516  0.36607427  0.89144293    -0.09800
C1761       C  0.51266396  0.38817461  0.90035288    -0.26400
S1762       S  0.57448030  0.46892114  0.97110660    -0.03600
C1763       C  0.59837359  0.46551502  0.98909774    -0.17000
C1764       C  0.59549811  0.44180680  0.98438879    -0.15000
H1765       H  0.57738903  0.39307806  0.96007602     0.20300
H1766       H  0.52915411  0.43589351  0.92802494     0.16400
H1767       H  0.50089026  0.39459319  0.88838186     0.18900
H1768       H  0.60893224  0.43638709  0.99291954     0.12200
C1769       C  0.56785939  0.44330453  0.71247735     0.16100
C1770       C  0.58101447  0.46630334  0.69482921    -0.32900
C1771       C  0.60360735  0.47183279  0.67835890     0.20500
C1772       C  0.61278716  0.45531586  0.67988512     0.02700
C1773       C  0.60001515  0.43272023  0.69824450    -0.22700
C1774       C  0.57732488  0.42705433  0.71419735     0.11900
S1775       S  0.53884853  0.43174851  0.73097972    -0.06300
C1776       C  0.53959509  0.40480106  0.74108744    -0.09800
C1777       C  0.56135210  0.40510916  0.73081143    -0.26400
S1778       S  0.63850830  0.46357440  0.65464172    -0.03600
C1779       C  0.63704369  0.48959526  0.64182011    -0.17000
C1780       C  0.61775368  0.49185380  0.65679301    -0.15000
H1781       H  0.57342618  0.47879148  0.69270401     0.20300
H1782       H  0.60686980  0.41956689  0.69867593     0.16400
H1783       H  0.56481841  0.38959457  0.73391938     0.18900
H1784       H  0.61309269  0.50613070  0.64995727     0.12200
C1785       C  0.35963853  0.27161459  0.70120798     0.16100
C1786       C  0.34323156  0.26368162  0.67227279    -0.32900
C1787       C  0.31768757  0.24690406  0.67829361     0.20500
C1788       C  0.30907211  0.23828642  0.71172531     0.02700
C1789       C  0.32552246  0.24602931  0.74060084    -0.22700
C1790       C  0.35101684  0.26303286  0.73464786     0.11900
S1791       S  0.39084735  0.29296567  0.69942282    -0.06300
C1792       C  0.39252685  0.29064490  0.74429558    -0.09800
C1793       C  0.36983595  0.27379136  0.75957938    -0.26400
S1794       S  0.27733403  0.21977902  0.71431656    -0.03600
C1795       C  0.27535053  0.22381753  0.66994625    -0.17000
C1796       C  0.29842634  0.23846255  0.65403282    -0.15000
H1797       H  0.35000071  0.27085021  0.64633838     0.20300
H1798       H  0.31859588  0.23964683  0.76673392     0.16400
H1799       H  0.36709921  0.27015399  0.78736197     0.18900
H1800       H  0.30084236  0.24412178  0.62687224     0.12200
C1801       C  0.42483977  0.41091464  0.85065869     0.16100
C1802       C  0.41556438  0.42744666  0.85546262    -0.32900
C1803       C  0.40741554  0.42926071  0.88914108     0.20500
C1804       C  0.40879038  0.41564864  0.91704613     0.02700
C1805       C  0.41838918  0.39941247  0.91233844    -0.22700
C1806       C  0.42609387  0.39724573  0.87857271     0.11900
S1807       S  0.43394760  0.40438491  0.81140363    -0.06300
C1808       C  0.43910327  0.38271875  0.83285639    -0.09800
C1809       C  0.43431948  0.38123217  0.86855830    -0.26400
S1810       S  0.39582811  0.41885975  0.95505230    -0.03600
C1811       C  0.38799769  0.43836991  0.93294563    -0.17000
C1812       C  0.39574731  0.44243893  0.89821059    -0.15000
H1813       H  0.41392056  0.43777467  0.83365774     0.20300
H1814       H  0.41895805  0.38821984  0.93378310     0.16400
H1815       H  0.43612327  0.36848977  0.88628839     0.18900
H1816       H  0.39153465  0.45323402  0.87979818     0.12200
C1817       C  0.57339747  0.98690697  0.89778657     0.16100
C1818       C  0.58325097  0.01280720  0.89366000    -0.32900
C1819       C  0.59257304  0.02316483  0.86059483     0.20500
C1820       C  0.59135126  0.00840406  0.83240091     0.02700
C1821       C  0.58097096  0.98241413  0.83633159    -0.22700
C1822       C  0.57250529  0.97219475  0.86973049     0.11900
S1823       S  0.56405315  0.97113002  0.93677355    -0.06300
C1824       C  0.55967877  0.94461496  0.91523058    -0.09800
C1825       C  0.56451274  0.94797373  0.87954582    -0.26400
S1826       S  0.60583915  0.02501361  0.79537067    -0.03600
C1827       C  0.61433840  0.05214300  0.81855130    -0.17000
C1828       C  0.60556079  0.04817456  0.85270669    -0.15000
H1829       H  0.58483604  0.02458771  0.91570891     0.20300
H1830       H  0.58074952  0.97085879  0.81478794     0.16400
H1831       H  0.56335305  0.93363568  0.86190078     0.18900
H1832       H  0.60977913  0.06297596  0.87149793     0.12200
C1833       C  0.54768098  0.80478664  0.58673078     0.16100
C1834       C  0.55950144  0.79228428  0.60116772    -0.32900
C1835       C  0.54545043  0.77221097  0.62396912     0.20500
C1836       C  0.52096235  0.76541916  0.63251217     0.02700
C1837       C  0.50929958  0.77808420  0.61850467    -0.22700
C1838       C  0.52310027  0.79769883  0.59517251     0.11900
S1839       S  0.56034925  0.82752032  0.55543129    -0.06300
C1840       C  0.53223679  0.82731681  0.55373842    -0.09800
C1841       C  0.51412188  0.81055485  0.57628630    -0.26400
S1842       S  0.50629167  0.73962956  0.65831651    -0.03600
C1843       C  0.53314854  0.73737298  0.65724472    -0.17000
C1844       C  0.55268340  0.75621279  0.63834017    -0.15000
H1845       H  0.57840171  0.79727940  0.59378404     0.20300
H1846       H  0.48993684  0.77219761  0.62440442     0.16400
H1847       H  0.49496697  0.80684579  0.57715464     0.18900
H1848       H  0.57060959  0.75737816  0.63386948     0.12200
C1849       C  0.55276223  0.77659338  0.87056873     0.16100
C1850       C  0.56122007  0.76488530  0.84708638    -0.32900
C1851       C  0.54442636  0.73980867  0.83784382     0.20500
C1852       C  0.52052650  0.72677399  0.85196640     0.02700
C1853       C  0.51229899  0.73830063  0.87589568    -0.22700
C1854       C  0.52881176  0.76347987  0.88441899     0.11900
S1855       S  0.56897114  0.80768693  0.88217265    -0.06300
C1856       C  0.54290539  0.80291116  0.90518936    -0.09800
C1857       C  0.52316341  0.77839429  0.90439162    -0.26400
S1858       S  0.50202866  0.69746998  0.83482890    -0.03600
C1859       C  0.52668331  0.70284382  0.80832492    -0.17000
C1860       C  0.54807039  0.72603782  0.81273324    -0.15000
H1861       H  0.57959767  0.77518419  0.83529214     0.20300
H1862       H  0.49339381  0.72845104  0.88610486     0.16400
H1863       H  0.50506364  0.77205469  0.91640805     0.18900
H1864       H  0.56474645  0.73300539  0.79680522     0.12200
C1865       C  0.81401615  0.93857221  0.48537817     0.16100
C1866       C  0.82114993  0.92825869  0.45797706    -0.32900
C1867       C  0.80702894  0.90216761  0.95271506     0.20500
C1868       C  0.78629270  0.88711042  0.97309693     0.02700
C1869       C  0.77916340  0.89740728  0.00042689    -0.22700
C1870       C  0.79368504  0.92333627  0.50632843     0.11900
S1871       S  0.82982997  0.96945401  0.49800134    -0.06300
C1872       C  0.80914537  0.96148039  0.53219466    -0.09800
C1873       C  0.79092581  0.93638213  0.53335683    -0.26400
S1874       S  0.77225228  0.85580160  0.96354760    -0.03600
C1875       C  0.79497654  0.86289982  0.93244581    -0.17000
C1876       C  0.81217800  0.88834187  0.92944077    -0.15000
H1877       H  0.83747781  0.93991178  0.44225230     0.20300
H1878       H  0.76350003  0.88560089  0.01712746     0.16400
H1879       H  0.77697162  0.92800203  0.55370801     0.18900
H1880       H  0.82816450  0.89618601  0.91207758     0.12200
C1881       C  0.78905374  0.89387198  0.71550754     0.16100
C1882       C  0.77960148  0.87225818  0.73627518    -0.32900
C1883       C  0.79671826  0.86507771  0.74837321     0.20500
C1884       C  0.82197558  0.87861470  0.73981028     0.02700
C1885       C  0.83126159  0.89985416  0.71866124    -0.22700
C1886       C  0.81430776  0.90720146  0.70702731     0.11900
S1887       S  0.77211982  0.90722798  0.70061377    -0.06300
C1888       C  0.79953736  0.93106823  0.68331273    -0.09800
C1889       C  0.82035548  0.92836157  0.68842678    -0.26400
S1890       S  0.84025933  0.86858908  0.75962357    -0.03600
C1891       C  0.81365833  0.84577290  0.77941593    -0.17000
C1892       C  0.79179912  0.84599582  0.77116982    -0.15000
H1893       H  0.76002951  0.86205123  0.74369656     0.20300
H1894       H  0.85105678  0.91076754  0.71265133     0.16400
H1895       H  0.83921036  0.94174857  0.68016304     0.18900
H1896       H  0.77369523  0.83389001  0.78291429     0.12200
C1897       C  0.75616611  0.07603015  0.67778141     0.16100
C1898       C  0.74510021  0.09122322  0.67966689    -0.32900
C1899       C  0.73494375  0.09269249  0.71193252     0.20500
C1900       C  0.73644692  0.08027315  0.74126602     0.02700
C1901       C  0.74788791  0.06552435  0.73953810    -0.22700
C1902       C  0.75736257  0.06350056  0.70715281     0.11900
S1903       S  0.76707187  0.06928009  0.64036283    -0.06300
C1904       C  0.77270071  0.04895874  0.66459040    -0.09800
C1905       C  0.76701309  0.04826179  0.69983860    -0.26400
S1906       S  0.72176187  0.08314946  0.77738693    -0.03600
C1907       C  0.71290975  0.10081283  0.75262776    -0.17000
C1908       C  0.72144060  0.10454579  0.71833684    -0.15000
H1909       H  0.74350952  0.10060589  0.65668558     0.20300
H1910       H  0.74845449  0.05521524  0.76213137     0.16400
H1911       H  0.76869929  0.03620934  0.71898417     0.18900
H1912       H  0.71724532  0.11468565  0.69881756     0.12200
C1913       C  0.64177576  0.91729663  0.55234699     0.16100
C1914       C  0.65740366  0.92649168  0.58192632    -0.32900
C1915       C  0.68275754  0.93366575  0.57790355     0.20500
C1916       C  0.69187842  0.93116183  0.54591397     0.02700
C1917       C  0.67608442  0.92132164  0.51656100    -0.22700
C1918       C  0.65086883  0.91476012  0.52036621     0.11900
S1919       S  0.61122891  0.90997881  0.55133189    -0.06300
C1920       C  0.61057454  0.90368858  0.00719230    -0.09800
C1921       C  0.63294794  0.90671303  0.99426412    -0.26400
S1922       S  0.72353806  0.94349570  0.54507340    -0.03600
C1923       C  0.72470035  0.95254305  0.58809545    -0.17000
C1924       C  0.70150806  0.94560683  0.60251432    -0.15000
H1925       H  0.65033216  0.92900209  0.60659861     0.20300
H1926       H  0.68341539  0.91997891  0.49145824     0.16400
H1927       H  0.63611183  0.90384168  0.96724666     0.18900
H1928       H  0.69874293  0.95079606  0.62850559     0.12200
C1929       C  0.56900856  0.14625683  0.71547496     0.16100
C1930       C  0.55647262  0.15808798  0.70163185    -0.32900
C1931       C  0.53760612  0.14485019  0.67675651     0.20500
C1932       C  0.53088352  0.12053010  0.66703023     0.02700
C1933       C  0.54294986  0.10841286  0.68169115    -0.22700
C1934       C  0.56248599  0.12201689  0.70563887     0.11900
S1935       S  0.59485414  0.16071360  0.74162571    -0.06300
C1936       C  0.59750922  0.13417772  0.73848815    -0.09800
C1937       C  0.57863833  0.11479717  0.71922351    -0.26400
S1938       S  0.50941855  0.10865361  0.63379752    -0.03600
C1939       C  0.50972751  0.13676481  0.63294841    -0.17000
C1940       C  0.52541185  0.15426565  0.65729376    -0.15000
H1941       H  0.56220255  0.17731542  0.70839146     0.20300
H1942       H  0.53833633  0.08978627  0.67322462     0.16400
H1943       H  0.57779971  0.09715208  0.71346751     0.18900
H1944       H  0.52877724  0.17327038  0.65922372     0.12200
C1945       C  0.60452257  0.14492734  0.93058261     0.16100
C1946       C  0.59369613  0.15340066  0.95527076    -0.32900
C1947       C  0.56814648  0.13788642  0.96249891     0.20500
C1948       C  0.55400026  0.11462000  0.94667054     0.02700
C1949       C  0.56496522  0.10590204  0.92238403    -0.22700
C1950       C  0.59042476  0.12173526  0.91444855     0.11900
S1951       S  0.63439932  0.16236928  0.91516428    -0.06300
C1952       C  0.62776194  0.13825410  0.88661832    -0.09800
C1953       C  0.60378980  0.11779021  0.88912434    -0.26400
S1954       S  0.52277553  0.09965337  0.95714102    -0.03600
C1955       C  0.52889050  0.12535811  0.98233601    -0.17000
C1956       C  0.55390493  0.14403510  0.98307833    -0.15000
H1957       H  0.60442382  0.17180126  0.96711784     0.20300
H1958       H  0.55389300  0.08809403  0.90910741     0.16400
H1959       H  0.59617669  0.10156728  0.87199736     0.18900
H1960       H  0.56111657  0.16179351  0.49666617     0.12200
C1961       C  0.48853455  0.21319825  0.90202501     0.16100
C1962       C  0.49801802  0.23429502  0.88050321    -0.32900
C1963       C  0.48101932  0.24103017  0.86699743     0.20500
C1964       C  0.45553964  0.22715542  0.87391405     0.02700
C1965       C  0.44587313  0.20551272  0.89470865    -0.22700
C1966       C  0.46302503  0.19900459  0.90878810     0.11900
S1967       S  0.50672635  0.20419277  0.92451280    -0.06300
C1968       C  0.47975732  0.18091408  0.94301272    -0.09800
C1969       C  0.45781513  0.18009357  0.93211446    -0.26400
S1970       S  0.43858932  0.24013702  0.85767520    -0.03600
C1971       C  0.46627117  0.26458884  0.84192842    -0.17000
C1972       C  0.48720585  0.26227687  0.84840999    -0.15000
H1973       H  0.51796602  0.24568327  0.87585763     0.20300
H1974       H  0.42609661  0.19490402  0.90090899     0.16400
H1975       H  0.43934700  0.16738990  0.94237997     0.18900
H1976       H  0.50622746  0.27613746  0.84151239     0.12200
C1977       C  0.46829065  0.26912296  0.65220512     0.16100
C1978       C  0.45607051  0.24818314  0.62981196    -0.32900
C1979       C  0.46907625  0.23559228  0.62056900     0.20500
C1980       C  0.49338266  0.24402473  0.63234498     0.02700
C1981       C  0.50546339  0.26473237  0.65472918    -0.22700
C1982       C  0.49227579  0.27681278  0.66466281     0.11900
S1983       S  0.45527238  0.28589165  0.66900418    -0.06300
C1984       C  0.48213522  0.30269643  0.69376619    -0.09800
C1985       C  0.50021085  0.29588627  0.68853556    -0.26400
S1986       S  0.50621047  0.22661139  0.61858486    -0.03600
C1987       C  0.47839383  0.20715420  0.59729499    -0.17000
C1988       C  0.46017981  0.21409951  0.60060869    -0.15000
H1989       H  0.43706027  0.24160127  0.62080048     0.20300
H1990       H  0.52414474  0.27077757  0.66472372     0.16400
H1991       H  0.51775542  0.30363916  0.70290145     0.18900
H1992       H  0.44154571  0.20397433  0.58923242     0.12200
C1993       C  0.31974769  0.07729565  0.92767004     0.16100
C1994       C  0.34605106  0.09153692  0.92864612    -0.32900
C1995       C  0.35779288  0.09826881  0.96161896     0.20500
C1996       C  0.34403189  0.09192032  0.99226488     0.02700
C1997       C  0.31773111  0.07808365  0.99123902    -0.22700
C1998       C  0.30601549  0.07058901  0.95835064     0.11900
S1999       S  0.30197952  0.06497327  0.89060255    -0.06300
C2000       C  0.27583733  0.05013549  0.91682013    -0.09800
C2001       C  0.28087186  0.05505807  0.95227733    -0.26400
S2002       S  0.36184516  0.09982646  0.52966503    -0.03600
C2003       C  0.38805929  0.11092729  0.50375298    -0.17000
C2004       C  0.38304554  0.10936246  0.96807064    -0.15000
H2005       H  0.35693061  0.09610728  0.90484757     0.20300
H2006       H  0.30691268  0.07232955  0.51511039     0.16400
H2007       H  0.26693094  0.04696881  0.97269548     0.18900
H2008       H  0.39705822  0.11457160  0.94784273     0.12200
C2009       C  0.16863655  0.05616098  0.00834950     0.16100
C2010       C  0.15940955  0.07055552  0.52379246    -0.32900
C2011       C  0.17622612  0.09161113  0.54331130     0.20500
C2012       C  0.20115161  0.09805929  0.54753019     0.02700
C2013       C  0.21028491  0.08325849  0.53273472    -0.22700
C2014       C  0.19343063  0.06218428  0.01296953     0.11900
S2015       S  0.15186511  0.03192509  0.98020661    -0.06300
C2016       C  0.17838983  0.02964775  0.97461041    -0.09800
C2017       C  0.19906733  0.04664054  0.99401270    -0.26400
S2018       S  0.21886240  0.12551754  0.56996289    -0.03600
C2019       C  0.19228315  0.12807594  0.57388156    -0.17000
C2020       C  0.17098085  0.10858964  0.55861580    -0.15000
H2021       H  0.14018635  0.06607475  0.51967682     0.20300
H2022       H  0.22980580  0.08841982  0.03547099     0.16400
H2023       H  0.21760960  0.04878975  0.99213281     0.18900
H2024       H  0.15280387  0.10737799  0.55766465     0.12200
C2025       C  0.16943736  0.11159307  0.75757880     0.16100
C2026       C  0.16044602  0.08816315  0.77338348    -0.32900
C2027       C  0.17716553  0.08451936  0.79414449     0.20500
C2028       C  0.20180771  0.10335937  0.79923376     0.02700
C2029       C  0.21064077  0.12718932  0.78423629    -0.22700
C2030       C  0.19386137  0.13082749  0.76320294     0.11900
S2031       S  0.15285589  0.11836181  0.72803715    -0.06300
C2032       C  0.17883821  0.14765417  0.72342150    -0.09800
C2033       C  0.19926663  0.15186063  0.74399330    -0.26400
S2034       S  0.21960165  0.09401217  0.82260339    -0.03600
C2035       C  0.19339651  0.06456465  0.82564398    -0.17000
C2036       C  0.17217222  0.06246480  0.80960179    -0.15000
H2037       H  0.14149840  0.07307228  0.76854895     0.20300
H2038       H  0.22993648  0.14189334  0.78769937     0.16400
H2039       H  0.21753532  0.16863857  0.74298961     0.18900
H2040       H  0.15423707  0.04528954  0.80792627     0.12200
C2041       C  0.42714021  0.84383941  0.55246887     0.16100
C2042       C  0.40767365  0.83274953  0.57678194    -0.32900
C2043       C  0.39695025  0.84684426  0.58853020     0.20500
C2044       C  0.40475576  0.87075897  0.57600829     0.02700
C2045       C  0.42454908  0.88203701  0.55188304    -0.22700
C2046       C  0.43576716  0.86810567  0.54073880     0.11900
S2047       S  0.44291861  0.82987996  0.53625604    -0.06300
C2048       C  0.46204815  0.85720756  0.51411134    -0.09800
C2049       C  0.45609987  0.87604542  0.51886609    -0.26400
S2050       S  0.38923872  0.88467487  0.59411332    -0.03600
C2051       C  0.37274967  0.85825839  0.61942465    -0.17000
C2052       C  0.37886682  0.83972731  0.61365902    -0.15000
H2053       H  0.40147944  0.81407329  0.58666677     0.20300
H2054       H  0.43122474  0.90097749  0.54276621     0.16400
H2055       H  0.46633027  0.89458226  0.00751316     0.18900
H2056       H  0.37093010  0.82219969  0.62784053     0.12200
C2057       C  0.46031157  0.84768899  0.81886873     0.16100
C2058       C  0.43873437  0.83874635  0.79807975    -0.32900
C2059       C  0.43176453  0.85608983  0.78687651     0.20500
C2060       C  0.44600201  0.88139701  0.79501884     0.02700
C2061       C  0.46815108  0.89052410  0.81479196    -0.22700
C2062       C  0.47477394  0.87303044  0.82683763     0.11900
S2063       S  0.46923148  0.82895831  0.84000195    -0.06300
C2064       C  0.49273370  0.85550153  0.85960252    -0.09800
C2065       C  0.49374971  0.87767259  0.84991069    -0.26400
S2066       S  0.43277690  0.89883676  0.78200020    -0.03600
C2067       C  0.40765934  0.87160929  0.76604519    -0.17000
C2068       C  0.40993117  0.85043531  0.76995609    -0.15000
H2069       H  0.42703366  0.81889415  0.79267559     0.20300
H2070       H  0.47894541  0.91012852  0.82213483     0.16400
H2071       H  0.50633954  0.89584716  0.86137387     0.18900
H2072       H  0.39573393  0.83162732  0.76238980     0.12200
C2073       C  0.25817360  0.93622015  0.83185870     0.16100
C2074       C  0.27436371  0.92640711  0.82932202    -0.32900
C2075       C  0.27804934  0.91909212  0.79607251     0.20500
C2076       C  0.26610049  0.92120925  0.76655491     0.02700
C2077       C  0.24990166  0.93104196  0.76908999    -0.22700
C2078       C  0.24637349  0.93856833  0.80232153     0.11900
S2079       S  0.25208671  0.94732451  0.86952770    -0.06300
C2080       C  0.23382562  0.95566625  0.84509018    -0.09800
C2081       C  0.23239952  0.94968463  0.80978010    -0.26400
S2082       S  0.27365260  0.91169330  0.72853005    -0.03600
C2083       C  0.29324562  0.90497080  0.75272649    -0.17000
C2084       C  0.29356291  0.90982033  0.78830548    -0.15000
H2085       H  0.28399366  0.92490763  0.85216917     0.20300
H2086       H  0.24076929  0.93312697  0.74610873     0.16400
H2087       H  0.22233368  0.95407670  0.79031655     0.18900
H2088       H  0.30493673  0.90707123  0.80756270     0.12200
C2089       C  0.40575068  0.99325388  0.66064243     0.16100
C2090       C  0.41638498  0.01927154  0.65713654    -0.32900
C2091       C  0.42013158  0.02905263  0.62312509     0.20500
C2092       C  0.41397687  0.01380859  0.59378480     0.02700
C2093       C  0.40347533  0.98780961  0.59728996    -0.22700
C2094       C  0.39941810  0.97799373  0.63129643     0.11900
S2095       S  0.39779813  0.97735748  0.69953003    -0.06300
C2096       C  0.38535665  0.94985467  0.67587519    -0.09800
C2097       C  0.38790612  0.95317076  0.63989774    -0.26400
S2098       S  0.41960804  0.02946209  0.55484669    -0.03600
C2099       C  0.43006126  0.05678354  0.57845144    -0.17000
C2100       C  0.42931382  0.05364520  0.61447839    -0.15000
H2101       H  0.42097253  0.03130584  0.67988314     0.20300
H2102       H  0.39816935  0.97569041  0.57453684     0.16400
H2103       H  0.38051057  0.93806299  0.62086341     0.18900
H2104       H  0.43504370  0.06863553  0.63346121     0.12200
C2105       C  0.91572192  0.81992639  0.79783600     0.16100
C2106       C  0.93950900  0.83197409  0.78230306    -0.32900
C2107       C  0.94613574  0.81749386  0.76129713     0.20500
C2108       C  0.93005701  0.79195774  0.75670083     0.02700
C2109       C  0.90630472  0.77982801  0.77255318    -0.22700
C2110       C  0.89941122  0.79447939  0.79288283     0.11900
S2111       S  0.90346094  0.83480250  0.82142630    -0.06300
C2112       C  0.87578560  0.80660029  0.82429051    -0.09800
C2113       C  0.87642674  0.78666848  0.80813442    -0.26400
S2114       S  0.94081834  0.77820040  0.72792239    -0.03600
C2115       C  0.96701265  0.80719140  0.72172569    -0.17000
C2116       C  0.96731625  0.82635505  0.74114903    -0.15000
H2117       H  0.95190083  0.85197747  0.78529981     0.20300
H2118       H  0.89339230  0.76007898  0.76807197     0.16400
H2119       H  0.86062622  0.76777125  0.80633988     0.18900
H2120       H  0.98150949  0.84594415  0.73898018     0.12200
C2121       C  0.88936457  0.78719154  0.54667730     0.16100
C2122       C  0.86682509  0.77763849  0.52767676    -0.32900
C2123       C  0.86148028  0.79501196  0.01164517     0.20500
C2124       C  0.87767523  0.82066808  0.01487964     0.02700
C2125       C  0.89965833  0.83014104  0.03468945    -0.22700
C2126       C  0.90516273  0.81286382  0.55011270     0.11900
S2127       S  0.90114543  0.76961543  0.56448146    -0.06300
C2128       C  0.92756805  0.79729119  0.57622133    -0.09800
C2129       C  0.92683590  0.81871516  0.56733111    -0.26400
S2130       S  0.87003591  0.83872594  0.98983714    -0.03600
C2131       C  0.84465082  0.81154258  0.97492330    -0.17000
C2132       C  0.84208015  0.78964335  0.98897451    -0.15000
H2133       H  0.85466395  0.75763444  0.52408082     0.20300
H2134       H  0.91261012  0.85013016  0.03644236     0.16400
H2135       H  0.94203838  0.83771817  0.57152179     0.18900
H2136       H  0.82807122  0.77090577  0.98081205     0.12200
C2137       C  0.10407038  0.88921102  0.96464809     0.16100
C2138       C  0.09213838  0.86874052  0.48754459    -0.32900
C2139       C  0.06673283  0.85983916  0.49544643     0.20500
C2140       C  0.05355704  0.87036406  0.48047820     0.02700
C2141       C  0.06528289  0.89032558  0.95682232    -0.22700
C2142       C  0.09085888  0.89969971  0.94975370     0.11900
S2143       S  0.13555207  0.90496197  0.95528263    -0.06300
C2144       C  0.13097011  0.92623181  0.93164385    -0.09800
C2145       C  0.10610103  0.92072010  0.93062633    -0.26400
S2146       S  0.02393330  0.85910196  0.49679492    -0.03600
C2147       C  0.02933692  0.84004377  0.52406901    -0.17000
C2148       C  0.05281822  0.84228908  0.52031010    -0.15000
H2149       H  0.10254993  0.86098362  0.50013840     0.20300
H2150       H  0.05529165  0.89911657  0.94595189     0.16400
H2151       H  0.09968348  0.93226869  0.91798673     0.18900
H2152       H  0.05997796  0.83294063  0.53680135     0.12200
C2153       C  0.13451894  0.92594626  0.74430146     0.16100
C2154       C  0.12319533  0.90256767  0.72741382    -0.32900
C2155       C  0.10253047  0.89650514  0.70562661     0.20500
C2156       C  0.09388423  0.91321880  0.70033302     0.02700
C2157       C  0.10542324  0.93673498  0.71679292    -0.22700
C2158       C  0.12570191  0.94254998  0.73919190     0.11900
S2159       S  0.15791106  0.93555976  0.77474152    -0.06300
C2160       C  0.15554744  0.96199248  0.78077724    -0.09800
C2161       C  0.13773261  0.96334624  0.76019998    -0.26400
S2162       S  0.06737771  0.90165015  0.67541908    -0.03600
C2163       C  0.06764741  0.87381822  0.67249314    -0.17000
C2164       C  0.08763198  0.87385880  0.68942869    -0.15000
H2165       H  0.12952757  0.88927115  0.73223145     0.20300
H2166       H  0.09821296  0.94946937  0.71349194     0.16400
H2167       H  0.13292427  0.97801903  0.76197062     0.18900
H2168       H  0.09027950  0.85777496  0.69148891     0.12200
C2169       C  0.10220959  0.74890146  0.53254007     0.16100
C2170       C  0.09710108  0.75990552  0.56120573    -0.32900
C2171       C  0.07702729  0.76450596  0.55811158     0.20500
C2172       C  0.06320299  0.75900616  0.52734274     0.02700
C2173       C  0.06872102  0.74862207  0.49836244    -0.22700
C2174       C  0.08835194  0.74339522  0.50179429     0.11900
S2175       S  0.12292961  0.73820232  0.53345169    -0.06300
C2176       C  0.11263531  0.72579685  0.99222606    -0.09800
C2177       C  0.09453597  0.73043594  0.97822292    -0.26400
S2178       S  0.03841899  0.76394737  0.52945257    -0.03600
C2179       C  0.04633776  0.77314628  0.57251308    -0.17000
C2180       C  0.06757758  0.77290197  0.58418249    -0.15000
H2181       H  0.10744923  0.76344672  0.58550717     0.20300
H2182       H  0.05736082  0.74364399  0.47481433     0.16400
H2183       H  0.08474539  0.72267597  0.95375057     0.18900
H2184       H  0.07502889  0.77755830  0.61053336     0.12200
C2185       C  0.21898685  0.73176745  0.59618153     0.16100
C2186       C  0.24096304  0.74391902  0.61623823    -0.32900
C2187       C  0.24692349  0.76687297  0.63173081     0.20500
C2188       C  0.23166636  0.77735978  0.62772992     0.02700
C2189       C  0.20925665  0.76487317  0.60822326    -0.22700
C2190       C  0.20332332  0.74184541  0.59249467     0.11900
S2191       S  0.21023961  0.70524103  0.57227157    -0.06300
C2192       C  0.18495127  0.70735631  0.55746223    -0.09800
C2193       C  0.18343575  0.72763188  0.57046322    -0.26400
S2194       S  0.24361837  0.80648257  0.64644207    -0.03600
C2195       C  0.26930613  0.80427557  0.65974645    -0.17000
C2196       C  0.26829887  0.78203765  0.65028803    -0.15000
H2197       H  0.25337325  0.73623809  0.61863961     0.20300
H2198       H  0.19743132  0.77310990  0.60451633     0.16400
H2199       H  0.16952921  0.73254886  0.56246208     0.18900
H2200       H  0.28301437  0.77762898  0.65541280     0.12200
C2201       C  0.24958829  0.76372630  0.88434277     0.16100
C2202       C  0.27337452  0.77518824  0.86902627    -0.32900
C2203       C  0.28075055  0.79707193  0.84975589     0.20500
C2204       C  0.26553584  0.80771531  0.84695967     0.02700
C2205       C  0.24175942  0.79637951  0.86275196    -0.22700
C2206       C  0.23395572  0.77385449  0.88097214     0.11900
S2207       S  0.23647256  0.73565744  0.90524143    -0.06300
C2208       C  0.20916982  0.73687193  0.90862188    -0.09800
C2209       C  0.21060769  0.75849980  0.89507942    -0.26400
S2210       S  0.27724644  0.83324801  0.82006519    -0.03600
C2211       C  0.30246238  0.82903234  0.81205911    -0.17000
C2212       C  0.30187949  0.80913160  0.82961871    -0.15000
H2213       H  0.28511401  0.76671241  0.87061196     0.20300
H2214       H  0.22944098  0.80409018  0.85951792     0.16400
H2215       H  0.19517005  0.76223963  0.89422819     0.18900
H2216       H  0.31544696  0.80296733  0.82623425     0.12200
C2217       C  0.94646880  0.69279352  0.71711490     0.16100
C2218       C  0.94150886  0.67704234  0.74612805    -0.32900
C2219       C  0.92236247  0.65195253  0.74288192     0.20500
C2220       C  0.90878179  0.64306166  0.71201253     0.02700
C2221       C  0.91347598  0.65894320  0.68318312    -0.22700
C2222       C  0.93271128  0.68402393  0.68636777     0.11900
S2223       S  0.96971451  0.72331520  0.71547594    -0.06300
C2224       C  0.96094715  0.72455908  0.67285637    -0.09800
C2225       C  0.94082462  0.70223580  0.66082066    -0.26400
S2226       S  0.88811393  0.61159275  0.71192879    -0.03600
C2227       C  0.89769206  0.61027659  0.75396586    -0.17000
C2228       C  0.91583372  0.63326700  0.76731885    -0.15000
H2229       H  0.95254086  0.68391204  0.76990278     0.20300
H2230       H  0.90305465  0.65185910  0.65898728     0.16400
H2231       H  0.93289763  0.69935496  0.63475365     0.18900
H2232       H  0.92502429  0.63584403  0.79244915     0.12200
C2233       C  0.77477761  0.54264095  0.62777181     0.16100
C2234       C  0.79748294  0.55196664  0.64644191    -0.32900
C2235       C  0.80229328  0.53451030  0.66347715     0.20500
C2236       C  0.78532928  0.50896105  0.66172269     0.02700
C2237       C  0.76311975  0.49966309  0.64225093    -0.22700
C2238       C  0.75822288  0.51704646  0.62559060     0.11900
S2239       S  0.76390334  0.56054175  0.60835004    -0.06300
C2240       C  0.73686242  0.53315336  0.59725698    -0.09800
C2241       C  0.73671144  0.51152787  0.60781880    -0.26400
S2242       S  0.79286849  0.49097315  0.68734858    -0.03600
C2243       C  0.81939317  0.51800868  0.70021553    -0.17000
C2244       C  0.82219684  0.53980245  0.68528202    -0.15000
H2245       H  0.81032855  0.57194375  0.64875743     0.20300
H2246       H  0.74968819  0.47975506  0.64135803     0.16400
H2247       H  0.72108829  0.49267715  0.60413902     0.18900
H2248       H  0.83708360  0.55853614  0.69180766     0.12200
C2249       C  0.77088836  0.54130595  0.87651131     0.16100
C2250       C  0.75685824  0.55060085  0.89327241    -0.32900
C2251       C  0.73444108  0.53320533  0.90977484     0.20500
C2252       C  0.72626848  0.50770986  0.90920440     0.02700
C2253       C  0.73981541  0.49840305  0.89153148    -0.22700
C2254       C  0.76231349  0.51575951  0.87555859     0.11900
S2255       S  0.79995141  0.55926588  0.85825748    -0.06300
C2256       C  0.80042302  0.53198211  0.84947858    -0.09800
C2257       C  0.77896019  0.51032448  0.85977767    -0.26400
S2258       S  0.70066459  0.48994589  0.93452530    -0.03600
C2259       C  0.70064596  0.51701257  0.94572776    -0.17000
C2260       C  0.71946946  0.53862305  0.93038074    -0.15000
H2261       H  0.76366645  0.57056357  0.89474829     0.20300
H2262       H  0.73370988  0.47855695  0.89168822     0.16400
H2263       H  0.77611194  0.49153465  0.85717963     0.18900
H2264       H  0.72315441  0.55740528  0.43620861     0.12200
C2265       C  0.99209790  0.58667305  0.84386652     0.16100
C2266       C  0.01837151  0.60088466  0.84610171    -0.32900
C2267       C  0.02933329  0.60781572  0.87956937     0.20500
C2268       C  0.01493044  0.60052897  0.90962437     0.02700
C2269       C  0.98866656  0.58607636  0.90741280    -0.22700
C2270       C  0.97768354  0.57960249  0.87391112     0.11900
S2271       S  0.97497549  0.57824495  0.80569429    -0.06300
C2272       C  0.94810246  0.56562557  0.83049271    -0.09800
C2273       C  0.95252161  0.56742594  0.86639041    -0.26400
S2274       S  0.03192905  0.61182236  0.94763043    -0.03600
C2275       C  0.05871530  0.62687668  0.92270265    -0.17000
C2276       C  0.05436954  0.62284656  0.88691760    -0.15000
H2277       H  0.02974615  0.60697282  0.82274362     0.20300
H2278       H  0.97723891  0.58078086  0.93072972     0.16400
H2279       H  0.93801828  0.56114317  0.88607836     0.18900
H2280       H  0.06879423  0.63100599  0.86713804     0.12200
C2281       C  0.76972029  0.22459827  0.88014291     0.16100
C2282       C  0.79354774  0.23927299  0.89534968    -0.32900
C2283       C  0.79800270  0.26085618  0.91397505     0.20500
C2284       C  0.77957101  0.26744981  0.91740210     0.02700
C2285       C  0.75602725  0.25308720  0.90177641    -0.22700
C2286       C  0.75163426  0.23166589  0.88317537     0.11900
S2287       S  0.75981018  0.19705518  0.85763563    -0.06300
C2288       C  0.73125928  0.19553613  0.85198635    -0.09800
C2289       C  0.72972830  0.21523771  0.86696304    -0.26400
S2290       S  0.78770447  0.29297363  0.94328565    -0.03600
C2291       C  0.81639067  0.29503362  0.94947556    -0.17000
C2292       C  0.81940908  0.27691648  0.93202543    -0.15000
H2293       H  0.80779365  0.23388633  0.89332225     0.20300
H2294       H  0.74155636  0.25810956  0.90458326     0.16400
H2295       H  0.71317890  0.21722404  0.86654310     0.18900
H2296       H  0.83585007  0.27481187  0.93401653     0.12200
C2297       C  0.77995941  0.24145916  0.65067231     0.16100
C2298       C  0.76930685  0.22726783  0.68065719    -0.32900
C2299       C  0.74342302  0.21087911  0.68059001     0.20500
C2300       C  0.72856399  0.20807596  0.65166077     0.02700
C2301       C  0.73928588  0.22253910  0.62140183    -0.22700
C2302       C  0.76537593  0.23951778  0.62176971     0.11900
S2303       S  0.81095535  0.26285719  0.64691972    -0.06300
C2304       C  0.80461016  0.27003994  0.60610115    -0.09800
C2305       C  0.77952182  0.25613638  0.59589855    -0.26400
S2306       S  0.69729566  0.18675887  0.65772943    -0.03600
C2307       C  0.70469171  0.18254873  0.69983714    -0.17000
C2308       C  0.72988354  0.19655275  0.70815831    -0.15000
H2309       H  0.78070601  0.22924996  0.70341579     0.20300
H2310       H  0.72780990  0.22092268  0.59890428     0.16400
H2311       H  0.77204839  0.25836105  0.57132054     0.18900
H2312       H  0.73786744  0.19639495  0.73340461     0.12200
C2313       C  0.88483089  0.40990006  0.67454876     0.16100
C2314       C  0.89644041  0.43328903  0.69181991    -0.32900
C2315       C  0.88090959  0.44030435  0.70975455     0.20500
C2316       C  0.85515962  0.42429473  0.71123590     0.02700
C2317       C  0.84365734  0.40100732  0.69428561    -0.22700
C2318       C  0.85899179  0.39442524  0.67549986     0.11900
S2319       S  0.89977648  0.39868512  0.64866695    -0.06300
C2320       C  0.87075377  0.37352704  0.63816433    -0.09800
C2321       C  0.85083448  0.37365263  0.65468733    -0.26400
S2322       S  0.83922295  0.43613014  0.73275637    -0.03600
C2323       C  0.86732653  0.46343066  0.73937409    -0.17000
C2324       C  0.88809302  0.46299453  0.72594111    -0.15000
H2325       H  0.91650350  0.44580161  0.69026199     0.20300
H2326       H  0.82347572  0.38894780  0.69461003     0.16400
H2327       H  0.83128794  0.35976147  0.65055441     0.18900
H2328       H  0.90714205  0.47858126  0.72698720     0.12200
C2329       C  0.85869071  0.43098742  0.96950535     0.16100
C2330       C  0.84830733  0.44580013  0.95926633    -0.32900
C2331       C  0.86039865  0.46339167  0.93263373     0.20500
C2332       C  0.88230999  0.46658431  0.91761329     0.02700
C2333       C  0.89284138  0.45193451  0.92811416    -0.22700
C2334       C  0.88027065  0.43376043  0.95395514     0.11900
S2335       S  0.84552277  0.40720491  0.99910099    -0.06300
C2336       C  0.86885454  0.40032168  0.98983244    -0.09800
C2337       C  0.88616567  0.41609999  0.96539575    -0.26400
S2338       S  0.89288103  0.48720071  0.88361255    -0.03600
C2339       C  0.86735128  0.49124125  0.88926657    -0.17000
C2340       C  0.85170431  0.47757385  0.91645448    -0.15000
H2341       H  0.83096392  0.44297406  0.97052240     0.20300
H2342       H  0.90944614  0.45383185  0.91554513     0.16400
H2343       H  0.90169577  0.41424579  0.95572989     0.18900
H2344       H  0.83409853  0.47672315  0.92242942     0.12200
C2345       C  0.90524767  0.24805781  0.99454549     0.16100
C2346       C  0.91887352  0.23543184  0.99190719    -0.32900
C2347       C  0.92476985  0.23088853  0.95823102     0.20500
C2348       C  0.91641257  0.23739337  0.92843115     0.02700
C2349       C  0.90228369  0.24943648  0.93108810    -0.22700
C2350       C  0.89749564  0.25512671  0.96468043     0.11900
S2351       S  0.90001865  0.25932514  0.03268586    -0.06300
C2352       C  0.88843221  0.27461526  0.50783167    -0.09800
C2353       C  0.88772822  0.27022209  0.47221782    -0.26400
S2354       S  0.92766910  0.23262614  0.89008030    -0.03600
C2355       C  0.94461690  0.22277975  0.91453580    -0.17000
C2356       C  0.94092622  0.22241146  0.95034378    -0.15000
H2357       H  0.92609050  0.23095237  0.01503691     0.20300
H2358       H  0.89679427  0.25570832  0.90794148     0.16400
H2359       H  0.88213008  0.27923049  0.45263659     0.18900
H2360       H  0.95083284  0.21770155  0.96969053     0.12200
C2361       C  0.06060379  0.19246843  0.73492828     0.16100
C2362       C  0.07102859  0.18156613  0.71371965    -0.32900
C2363       C  0.09570013  0.19677799  0.70249940     0.20500
C2364       C  0.10933526  0.22205335  0.71100641     0.02700
C2365       C  0.09855369  0.23326566  0.73148155    -0.22700
C2366       C  0.07392368  0.21774438  0.74369077     0.11900
S2367       S  0.03256281  0.17582776  0.75535915    -0.06300
C2368       C  0.03857652  0.20295883  0.77653076    -0.09800
C2369       C  0.06106851  0.22404716  0.76736346    -0.26400
S2370       S  0.13994655  0.23639756  0.69741321    -0.03600
C2371       C  0.13417270  0.20781094  0.68095171    -0.17000
C2372       C  0.10967657  0.18862507  0.68506237    -0.15000
H2373       H  0.06083189  0.16166833  0.70792505     0.20300
H2374       H  0.10932364  0.25280826  0.73912268     0.16400
H2375       H  0.06848341  0.24233949  0.77945434     0.18900
H2376       H  0.10274060  0.16931308  0.67731592     0.12200
C2377       C  0.13056210  0.21278653  0.50813261     0.16100
C2378       C  0.11438957  0.22167432  0.49876228    -0.32900
C2379       C  0.10019438  0.21216728  0.96814066     0.20500
C2380       C  0.10229369  0.19489473  0.94720864     0.02700
C2381       C  0.11895649  0.18631921  0.95625245    -0.22700
C2382       C  0.13290048  0.19551696  0.48743357     0.11900
S2383       S  0.14657381  0.21971736  0.54664228    -0.06300
C2384       C  0.15659730  0.19910829  0.53521731    -0.09800
C2385       C  0.14819508  0.18772431  0.50279214    -0.26400
S2386       S  0.08169187  0.18424637  0.91263912    -0.03600
C2387       C  0.07006175  0.20309677  0.92697475    -0.17000
C2388       C  0.08194533  0.21703070  0.95661977    -0.15000
H2389       H  0.11210638  0.23459883  0.51551284     0.20300
H2390       H  0.12018118  0.17232779  0.94053038     0.16400
H2391       H  0.15147475  0.17324300  0.99237322     0.18900
H2392       H  0.07667574  0.22920065  0.97009727     0.12200
C2393       C  0.93861678  0.11211062  0.49864227     0.16100
C2394       C  0.92386297  0.08817714  0.51277265    -0.32900
C2395       C  0.90441855  0.08454684  0.53524387     0.20500
C2396       C  0.89968188  0.10379074  0.54327414     0.02700
C2397       C  0.91478463  0.12791557  0.02962867    -0.22700
C2398       C  0.93434015  0.13159070  0.00716992     0.11900
S2399       S  0.96182606  0.11970862  0.96883020    -0.06300
C2400       C  0.96602996  0.14955898  0.96792211    -0.09800
C2401       C  0.95027333  0.15328465  0.98988727    -0.26400
S2402       S  0.87403151  0.09491465  0.56928418    -0.03600
C2403       C  0.87008387  0.06516182  0.56972734    -0.17000
C2404       C  0.88768387  0.06244997  0.55064492    -0.15000
H2405       H  0.92704767  0.07289072  0.50593741     0.20300
H2406       H  0.91111809  0.14300445  0.03562187     0.16400
H2407       H  0.94965904  0.17054371  0.99175554     0.18900
H2408       H  0.88774353  0.04498035  0.54733389     0.12200
C2409       C  0.87438051  0.06411495  0.76774423     0.16100
C2410       C  0.88926276  0.07531472  0.79770829    -0.32900
C2411       C  0.90588500  0.10143659  0.79716551     0.20500
C2412       C  0.90699147  0.11574062  0.76850979     0.02700
C2413       C  0.89216980  0.10462819  0.73880514    -0.22700
C2414       C  0.87624795  0.07858816  0.73892939     0.11900
S2415       S  0.85415540  0.03254559  0.76167703    -0.06300
C2416       C  0.84908086  0.03917521  0.71963545    -0.09800
C2417       C  0.86197209  0.06441503  0.71136342    -0.26400
S2418       S  0.92866438  0.14681423  0.77201098    -0.03600
C2419       C  0.93710217  0.14068409  0.81220609    -0.17000
C2420       C  0.92325358  0.11571806  0.82245453    -0.15000
H2421       H  0.88848398  0.06410015  0.81996295     0.20300
H2422       H  0.89358604  0.11572449  0.71607373     0.16400
H2423       H  0.86136689  0.07193585  0.68601263     0.18900
H2424       H  0.92621827  0.10833114  0.84656289     0.12200
C2425       C  0.99333636  0.40310906  0.57743827     0.16100
C2426       C  0.01452422  0.42211798  0.59453433    -0.32900
C2427       C  0.03223897  0.41611531  0.60771723     0.20500
C2428       C  0.02961602  0.39256601  0.60315827     0.02700
C2429       C  0.00860035  0.37365049  0.58552595    -0.22700
C2430       C  0.99040467  0.37937807  0.57344218     0.11900
S2431       S  0.96810670  0.40561023  0.56365103    -0.06300
C2432       C  0.95322442  0.37419992  0.55335210    -0.09800
C2433       C  0.96739329  0.36273896  0.55968116    -0.26400
S2434       S  0.05228006  0.38862884  0.62384065    -0.03600
C2435       C  0.06481025  0.41873289  0.63977645    -0.17000
C2436       C  0.05240457  0.43116076  0.62841181    -0.15000
H2437       H  0.01646538  0.44039436  0.59902508     0.20300
H2438       H  0.00588076  0.35492156  0.58298199     0.16400
H2439       H  0.96055745  0.34286815  0.55633543     0.18900
H2440       H  0.05714161  0.44992212  0.63647607     0.12200
C2441       C  0.06959055  0.33150917  0.85278613     0.16100
C2442       C  0.08871175  0.35447580  0.83982732    -0.32900
C2443       C  0.08164373  0.37055096  0.82353386     0.20500
C2444       C  0.05678610  0.36469410  0.82153955     0.02700
C2445       C  0.03770986  0.34197975  0.83519835    -0.22700
C2446       C  0.04468987  0.32540689  0.85006154     0.11900
S2447       S  0.07382180  0.30770690  0.86863737    -0.06300
C2448       C  0.04166517  0.28905606  0.87026884    -0.09800
C2449       C  0.02869356  0.30119046  0.86014535    -0.26400
S2450       S  0.05200465  0.38555270  0.79748600    -0.03600
C2451       C  0.08371063  0.40176426  0.78888069    -0.17000
C2452       C  0.09709265  0.39178941  0.80503431    -0.15000
H2453       H  0.10810384  0.35891844  0.84040390     0.20300
H2454       H  0.01816850  0.33673543  0.83235504     0.16400
H2455       H  0.00844465  0.29217486  0.85820554     0.18900
H2456       H  0.11695263  0.39878143  0.80135563     0.12200
C2457       C  0.23458517  0.44365243  0.85556158     0.16100
C2458       C  0.21599474  0.43335637  0.82939645    -0.32900
C2459       C  0.20787026  0.44904754  0.81472541     0.20500
C2460       C  0.21772036  0.47367381  0.82595058     0.02700
C2461       C  0.23608039  0.48382932  0.85197455    -0.22700
C2462       C  0.24427041  0.46833210  0.86634516     0.11900
S2463       S  0.24835099  0.42861638  0.87537259    -0.06300
C2464       C  0.26742358  0.45609849  0.89777706    -0.09800
C2465       C  0.26290842  0.47549828  0.89060918    -0.26400
S2466       S  0.20613762  0.49005748  0.80516722    -0.03600
C2467       C  0.18774305  0.46363567  0.78062643    -0.17000
C2468       C  0.19048135  0.44308853  0.78841281    -0.15000
H2469       H  0.20856546  0.41421416  0.82048114     0.20300
H2470       H  0.24396310  0.50316611  0.86027399     0.16400
H2471       H  0.27353694  0.49428032  0.90135318     0.18900
H2472       H  0.18050396  0.42501309  0.77547685     0.12200
C2473       C  0.21511863  0.45754863  0.59702784     0.16100
C2474       C  0.22595152  0.45140865  0.56930292    -0.32900
C2475       C  0.25204061  0.46110861  0.57014809     0.20500
C2476       C  0.26678633  0.47582833  0.59768612     0.02700
C2477       C  0.25595094  0.48210906  0.62538170    -0.22700
C2478       C  0.22988807  0.47287797  0.62410683     0.11900
S2479       S  0.18377230  0.44771417  0.60082576    -0.06300
C2480       C  0.19069295  0.46506580  0.63877709    -0.09800
C2481       C  0.21599286  0.47743207  0.64793951    -0.26400
S2482       S  0.29827513  0.48626613  0.59292424    -0.03600
C2483       C  0.29142477  0.47119138  0.55300382    -0.17000
C2484       C  0.26607322  0.45853243  0.54449630    -0.15000
H2485       H  0.21459626  0.43989146  0.54770075     0.20300
H2486       H  0.26737409  0.49403691  0.64663948     0.16400
H2487       H  0.22373840  0.48880098  0.67125056     0.18900
H2488       H  0.25842890  0.44873329  0.52000887     0.12200
C2489       C  0.11269445  0.54235213  0.60466530     0.16100
C2490       C  0.10300295  0.55589087  0.58763868    -0.32900
C2491       C  0.11717611  0.57190928  0.56042736     0.20500
C2492       C  0.13968019  0.57384762  0.55006731     0.02700
C2493       C  0.14905590  0.55984044  0.56648660    -0.22700
C2494       C  0.13522824  0.54438075  0.59431663     0.11900
S2495       S  0.09959754  0.52386608  0.64044744    -0.06300
C2496       C  0.12497517  0.51919227  0.64186617    -0.09800
C2497       C  0.14232086  0.53101808  0.61545820    -0.26400
S2498       S  0.15541170  0.59619598  0.51926919    -0.03600
C2499       C  0.13167981  0.60338784  0.52077970    -0.17000
C2500       C  0.11227709  0.58860738  0.54328394    -0.15000
H2501       H  0.08577291  0.55485650  0.59626969     0.20300
H2502       H  0.16692558  0.56183478  0.55902717     0.16400
H2503       H  0.15954370  0.53045694  0.61248879     0.18900
H2504       H  0.09642914  0.59117507  0.54868122     0.12200
C2505       C  0.12731386  0.55294220  0.82567535     0.16100
C2506       C  0.12026710  0.56411191  0.85188816    -0.32900
C2507       C  0.13184883  0.59037812  0.85220960     0.20500
C2508       C  0.14934413  0.60499064  0.82724161     0.02700
C2509       C  0.15642985  0.59379812  0.80103031    -0.22700
C2510       C  0.14518849  0.56751653  0.80110942     0.11900
S2511       S  0.11540635  0.52134502  0.82067039    -0.06300
C2512       C  0.13502396  0.52782117  0.78541430    -0.09800
C2513       C  0.14983653  0.55320854  0.77813699    -0.26400
S2514       S  0.16201553  0.63666959  0.83336085    -0.03600
C2515       C  0.14391613  0.63000134  0.87027865    -0.17000
C2516       C  0.12875130  0.60465005  0.87697400    -0.15000
H2517       H  0.10663575  0.55285468  0.87149646     0.20300
H2518       H  0.17040430  0.60508101  0.78181611     0.16400
H2519       H  0.16283152  0.56076342  0.75654191     0.18900
H2520       H  0.11698172  0.59712468  0.89981882     0.12200
loop_ 
_geom_bond_atom_site_label_1 
_geom_bond_atom_site_label_2 
_geom_bond_distance 
_geom_bond_site_symmetry_2 
_ccdc_geom_bond_type 
O1           C16   1.252       .  A
O1           Al9   1.852       .  S
C2           O12   1.270       .  A
C2            O3   1.280       .  A
C2         C1207   1.465       .  S
O3           Al5   1.957       .  S
O4            C6   1.252       .  A
O4           Al5   1.868       .  S
Al5          O13   1.916       .  S
Al5          O15   1.948       .  S
Al5          O14   1.781       .  S
C6           O19   1.265       .  A
C6         C1191   1.479       .  S
O7           C17   1.254       .  A
O7           Al9   1.908       .  S
O8           C21   1.271       .  A
O8          Al18   1.887       .  S
Al9          O22   1.953       .  S
Al9          O19   1.943       .  S
Al9          O14   1.780       .  S
O10          C17   1.255       .  A
O10         Al18   1.917       .  S
O11          C20   1.252       .  A
O11         Al18   1.910       .  S
O12         Al18   1.868       .  S
O13          C20   1.255       .  A
O14         Al18   1.782       .  S
O15          C16   1.268       .  A
C16        C1175   1.477       .  S
C17        C1252   1.475       .  S
C20        C1220   1.477       .  S
C21          O22   1.279       .  A
C21        C1236   1.471       .  S
O23          C38   1.259       .  A
O23         Al31   1.899   1_655  S
C24          O34   1.268       .  A
C24          O25   1.266       .  A
C24        C1108   1.470       .  S
O25         Al27   1.910       .  S
O26          C28   1.259       .  A
O26         Al27   1.902       .  S
Al27         O35   1.911   1_455  S
Al27         O37   1.899   1_455  S
Al27         O36   1.788       .  S
C28          O41   1.262       .  A
C28        C1127   1.477       .  S
O29          C39   1.264       .  A
O29         Al31   1.938       .  S
O30          C43   1.268       .  A
O30         Al40   1.912       .  S
Al31         O44   1.901   1_455  S
Al31         O41   1.906       .  S
Al31         O36   1.784       .  S
O32          C39   1.256       .  A
O32         Al40   1.897   1_455  S
O33          C42   1.259       .  A
O33         Al40   1.914       .  S
O34         Al40   1.923   1_455  S
O35          C42   1.257       .  A
O36         Al40   1.788   1_455  S
O37          C38   1.258       .  A
C38        C1140   1.469       .  S
C39        C1188   1.479       .  S
C42        C1159   1.477       .  S
C43          O44   1.264       .  A
C43        C1095   1.465       .  S
O45          C60   1.258       .  A
O45       Al1313   1.889       .  S
C46          O56   1.265       .  A
C46          O47   1.269       .  A
C46        C1060   1.471       .  S
O47         Al49   1.928       .  S
O48        C1310   1.257       .  A
O48         Al49   1.887       .  S
Al49         O57   1.907       .  S
Al49         O59   1.910   1_554  S
Al49         O58   1.784       .  S
C50          O63   1.262       .  A
C50        O1308   1.257       .  A
C50        C1076   1.476       .  S
O51          C61   1.262       .  A
O51         Al53   1.922       .  S
O52          C65   1.266       .  A
O52         Al62   1.909       .  S
Al53         O66   1.912       .  S
Al53       O1305   1.889   1_554  S
Al53       O1323   1.924   1_554  S
Al53         O58   1.781       .  S
O54          C61   1.258       .  A
O54         Al62   1.904       .  S
O55          C64   1.259       .  A
O55         Al62   1.910       .  S
O56         Al62   1.906       .  S
O57          C64   1.256       .  A
O58         Al62   1.785       .  S
O59        C1320   1.262       .  A
C60        O1319   1.262       .  A
C60        C1031   1.466       .  S
C61        C1172   1.468       .  S
O63       Al1313   1.924       .  S
C64        C1044   1.474       .  S
C65          O66   1.267       .  A
C65        C1092   1.466       .  S
O67          C82   1.252       .  A
O67         Al75   1.869       .  S
C68          O78   1.264       .  A
C68          O69   1.275       .  A
C68        C1079   1.466       .  S
O69         Al71   1.957       .  S
O70          C72   1.254       .  A
O70         Al71   1.865       .  S
Al71         O79   1.916       .  S
Al71         O81   1.940       .  S
Al71         O80   1.789       .  S
C72          O85   1.268       .  A
C72        C1012   1.480       .  S
O73          C83   1.257       .  A
O73         Al75   1.925       .  S
O74          C87   1.267       .  A
O74         Al84   1.884       .  S
Al75         O88   1.951       .  S
Al75         O85   1.945       .  S
Al75         O80   1.784       .  S
O76          C83   1.251       .  A
O76         Al84   1.888       .  S
O77          C86   1.255       .  A
O77         Al84   1.905       .  S
O78         Al84   1.881       .  S
O79          C86   1.256       .  A
O80         Al84   1.785       .  S
O81          C82   1.264       .  A
C82         C967   1.475       .  S
C83        C1063   1.477       .  S
C86         C996   1.476       .  S
C87          O88   1.276       .  A
C87         C983   1.466       .  S
O89         C104   1.251       .  A
O89         Al97   1.857       .  S
C90         O100   1.261       .  A
C90          O91   1.274       .  A
C90        C1255   1.465       .  S
O91         Al93   1.960       .  S
O92          C94   1.256       .  A
O92         Al93   1.875       .  S
Al93        O101   1.915       .  S
Al93        O103   1.942       .  S
Al93        O102   1.792       .  S
C94         O107   1.267       .  A
C94        C1015   1.482       .  S
O95         C105   1.256       .  A
O95       Al1357   1.908   1_554  S
O96        C1369   1.264       .  A
O96        Al106   1.879       .  S
Al97        O107   1.942       .  S
Al97       O1355   1.908       .  S
Al97       O1370   1.947       .  S
Al97        O102   1.784       .  S
O98        C1365   1.253       .  A
O98        Al106   1.892       .  S
O99         C108   1.256       .  A
O99        Al106   1.901       .  S
O100       Al106   1.870       .  S
O101        C108   1.257       .  A
O102       Al106   1.783       .  S
O103        C104   1.265       .  A
C104        C916   1.469       .  S
C105       O1358   1.253   1_554  A
C105       C1239   1.469       .  S
C108        C948   1.474       .  S
C109        O110   1.273       .  A
C109       O1356   1.264   1_554  A
C109        C932   1.464       .  S
O110      Al1357   1.947   1_554  S
O111        C126   1.251       .  A
O111       Al119   1.863   1_655  S
C112        O122   1.271       .  A
C112        O113   1.282   1_455  A
C112        C887   1.470       .  S
O113       Al115   1.968       .  S
O114        C116   1.252       .  A
O114       Al115   1.855   1_455  S
Al115       O123   1.908       .  S
Al115       O125   1.940       .  S
Al115       O124   1.783       .  S
C116        O129   1.267       .  A
C116        C919   1.475       .  S
O117        C127   1.250       .  A
O117       Al119   1.906       .  S
O118        C131   1.272       .  A
O118       Al128   1.885       .  S
Al119       O132   1.962       .  S
Al119       O129   1.940       .  S
Al119       O124   1.780   1_455  S
O120        C127   1.245       .  A
O120       Al128   1.882   1_455  S
O121        C130   1.248       .  A
O121       Al128   1.883       .  S
O122       Al128   1.888   1_455  S
O123        C130   1.250       .  A
O124       Al128   1.784       .  S
O125        C126   1.265       .  A
C126        C964   1.481       .  S
C127        C903   1.469       .  S
C130        C868   1.468       .  S
C131        O132   1.282   1_655  A
C131        C855   1.467       .  S
O133        C148   1.273       .  A
O133       Al141   1.945       .  S
C134        O144   1.275       .  A
C134        O135   1.265       .  A
C134        C791   1.471       .  S
O135       Al137   1.880       .  S
O136        C138   1.256       .  A
O136       Al137   1.906       .  S
Al137       O145   1.903       .  S
Al137       O147   1.884       .  S
Al137       O146   1.790       .  S
C138        O151   1.255       .  A
C138        C807   1.471       .  S
O139        C149   1.263       .  A
O139       Al141   1.933       .  S
O140        C153   1.267       .  A
O140       Al150   1.943       .  S
Al141       O154   1.859       .  S
Al141       O151   1.902       .  S
Al141       O146   1.788       .  S
O142        C149   1.251       .  A
O142       Al150   1.858       .  S
O143        C152   1.253       .  A
O143       Al150   1.906       .  S
O144       Al150   1.951       .  S
O145        C152   1.254       .  A
O146       Al150   1.783       .  S
O147        C148   1.264       .  A
C148        C951   1.464       .  S
C149        C836   1.473       .  S
C152        C935   1.474       .  S
C153        O154   1.253       .  A
C153        C823   1.477       .  S
O155        C170   1.268       .  A
O155       Al163   1.936   1_565  S
C156        O166   1.272       .  A
C156        O157   1.263       .  A
C156        C756   1.464       .  S
O157       Al159   1.872   1_545  S
O158        C160   1.259       .  A
O158       Al159   1.915   1_545  S
Al159       O167   1.899       .  S
Al159       O169   1.878       .  S
Al159       O168   1.789       .  S
C160        O173   1.258       .  A
C160        C775   1.477       .  S
O161        C171   1.260       .  A
O161       Al163   1.921       .  S
O162        C175   1.268       .  A
O162       Al172   1.941       .  S
Al163       O176   1.870   1_545  S
Al163       O173   1.913       .  S
Al163       O168   1.791   1_545  S
O164        C171   1.255       .  A
O164       Al172   1.885   1_545  S
O165        C174   1.259       .  A
O165       Al172   1.924       .  S
O166       Al172   1.940   1_545  S
O167        C174   1.254       .  A
O168       Al172   1.790       .  S
O169        C170   1.260       .  A
C170        C900   1.456       .  S
C171        C740   1.478       .  S
C174        C884   1.484       .  S
C175        O176   1.256       .  A
C175        C820   1.475       .  S
O177        C192   1.274       .  A
O177      Al1445   1.938       .  S
C178        O188   1.274       .  A
C178        O179   1.266       .  A
C178        C679   1.460       .  S
O179       Al181   1.885       .  S
O180       C1442   1.251   1_554  A
O180       Al181   1.888       .  S
Al181       O189   1.901       .  S
Al181       O191   1.887       .  S
Al181       O190   1.785       .  S
C182        O195   1.254       .  A
C182       O1440   1.251       .  A
C182        C695   1.472       .  S
O183        C193   1.265       .  A
O183       Al185   1.931       .  S
O184        C197   1.263       .  A
O184       Al194   1.927       .  S
Al185       O198   1.868   1_554  S
Al185      O1437   1.938   1_554  S
Al185      O1455   1.911       .  S
Al185       O190   1.787       .  S
O186        C193   1.255       .  A
O186       Al194   1.867       .  S
O187        C196   1.256       .  A
O187       Al194   1.919       .  S
O188       Al194   1.948       .  S
O189        C196   1.253       .  A
O190       Al194   1.787       .  S
O191       C1452   1.269   1_554  A
C192       O1451   1.269       .  A
C192        C708   1.461       .  S
C193        C839   1.475       .  S
O195      Al1445   1.911       .  S
C196        C727   1.473       .  S
C197        O198   1.253   1_554  A
C197        C743   1.475       .  S
O199        C214   1.253       .  A
O199       Al207   1.859   1_565  S
C200        O210   1.267       .  A
C200        O201   1.278       .  A
C200       C1156   1.471       .  S
O201       Al203   1.968   1_545  S
O202        C204   1.252       .  A
O202       Al203   1.859   1_545  S
Al203       O211   1.901       .  S
Al203       O213   1.946       .  S
Al203       O212   1.781       .  S
C204        O217   1.265       .  A
C204        C644   1.479       .  S
O205        C215   1.255       .  A
O205       Al207   1.907       .  S
O206        C219   1.267       .  A
O206       Al216   1.885       .  S
Al207       O220   1.962   1_545  S
Al207       O217   1.942       .  S
Al207       O212   1.777   1_545  S
O208        C215   1.256       .  A
O208       Al216   1.912   1_545  S
O209        C218   1.256       .  A
O209       Al216   1.905       .  S
O210       Al216   1.880   1_545  S
O211        C218   1.253       .  A
O212       Al216   1.778       .  S
O213        C214   1.268       .  A
C214        C663   1.472       .  S
C215       C1143   1.467       .  S
C218        C628   1.470       .  S
C219        O220   1.276       .  A
C219        C612   1.465       .  S
O221        C236   1.252       .  A
O221       Al229   1.859       .  S
C222        O232   1.272       .  A
C222        O223   1.279       .  A
C222        C804   1.459       .  S
O223       Al225   1.947       .  S
O224        C226   1.253       .  A
O224       Al225   1.868       .  S
Al225       O233   1.911       .  S
Al225       O235   1.935       .  S
Al225       O234   1.785       .  S
C226        O239   1.264       .  A
C226        C564   1.480       .  S
O227        C237   1.252       .  A
O227      Al1489   1.915       .  S
O228       C1501   1.268       .  A
O228       Al238   1.880       .  S
Al229       O239   1.935       .  S
Al229      O1487   1.915       .  S
Al229      O1502   1.963       .  S
Al229       O234   1.785       .  S
O230       C1497   1.251       .  A
O230       Al238   1.902       .  S
O231        C240   1.248       .  A
O231       Al238   1.884       .  S
O232       Al238   1.884       .  S
O233        C240   1.251       .  A
O234       Al238   1.784       .  S
O235        C236   1.265       .  A
C236        C660   1.475       .  S
C237       O1490   1.251       .  A
C237        C788   1.475   1_556  S
C240        C596   1.473       .  S
C241        O242   1.280       .  A
C241       O1488   1.268   1_554  A
C241        C580   1.464       .  S
O242      Al1489   1.963   1_554  S
O243        C258   1.257       .  A
O243       Al251   1.887       .  S
C244        O254   1.263       .  A
C244        O245   1.271       .  A
C244        C692   1.458       .  S
O245       Al247   1.943       .  S
O246        C248   1.254       .  A
O246       Al247   1.864       .  S
Al247       O255   1.917       .  S
Al247       O257   1.927       .  S
Al247       O256   1.781       .  S
C248        O261   1.268       .  A
C248        C567   1.476       .  S
O249        C259   1.258       .  A
O249       Al251   1.914       .  S
O250        C263   1.265       .  A
O250       Al260   1.880       .  S
Al251       O264   1.959       .  S
Al251       O261   1.949       .  S
Al251       O256   1.786       .  S
O252        C259   1.254       .  A
O252       Al260   1.892       .  S
O253        C262   1.256       .  A
O253       Al260   1.894       .  S
O254       Al260   1.883       .  S
O255        C262   1.258       .  A
O256       Al260   1.776       .  S
O257        C258   1.264       .  A
C258        C647   1.475       .  S
C259        C676   1.470       .  S
C262       C1028   1.469       .  S
C263        O264   1.273       .  A
C263       C1047   1.469       .  S
O265        C280   1.253       .  A
O265       Al273   1.860       .  S
C266        O276   1.265       .  A
C266        O267   1.277       .  A
C266        C724   1.470       .  S
O267       Al269   1.958       .  S
O268        C270   1.251       .  A
O268       Al269   1.860       .  S
Al269       O277   1.904       .  S
Al269       O279   1.945       .  S
Al269       O278   1.787       .  S
C270        O283   1.266       .  A
C270        C532   1.483       .  S
O271        C281   1.252       .  A
O271       Al273   1.901       .  S
O272        C285   1.265       .  A
O272       Al282   1.880       .  S
Al273       O286   1.962       .  S
Al273       O283   1.950       .  S
Al273       O278   1.789       .  S
O274        C281   1.255       .  A
O274       Al282   1.905       .  S
O275        C284   1.254       .  A
O275       Al282   1.907       .  S
O276       Al282   1.871       .  S
O277        C284   1.252       .  A
O278       Al282   1.793       .  S
O279        C280   1.266       .  A
C280        C548   1.481       .  S
C281        C711   1.473       .  S
C284        C516   1.476       .  S
C285        O286   1.277       .  A
C285        C500   1.469       .  S
O287        C302   1.251       .  A
O287       Al295   1.859       .  S
C288        O298   1.260       .  A
C288        O289   1.276       .  A
C288       C1124   1.467       .  S
O289       Al291   1.971       .  S
O290        C292   1.252       .  A
O290       Al291   1.849       .  S
Al291       O299   1.899       .  S
Al291       O301   1.954       .  S
Al291       O300   1.784       .  S
C292        O305   1.269       .  A
C292        C484   1.476       .  S
O293        C303   1.253       .  A
O293       Al295   1.904       .  S
O294        C307   1.265       .  A
O294       Al304   1.874       .  S
Al295       O308   1.960       .  S
Al295       O305   1.951       .  S
Al295       O300   1.777       .  S
O296        C303   1.257       .  A
O296       Al304   1.912       .  S
O297        C306   1.261       .  A
O297       Al304   1.926       .  S
O298       Al304   1.866       .  S
O299        C306   1.256       .  A
O300       Al304   1.784       .  S
O301        C302   1.267       .  A
C302        C535   1.479       .  S
C303       C1111   1.476       .  S
C306        C759   1.472       .  S
C307        O308   1.277       .  A
C307        C772   1.471       .  S
O309        C324   1.249       .  A
O309       Al317   1.848       .  S
C310        O311   1.277       .  A
C310       O1580   1.261   1_554  A
C310       C1223   1.474       .  S
O311      Al1573   1.977       .  S
O312        C314   1.254       .  A
O312       Al313   1.862       .  S
Al313       O323   1.966       .  S
Al313      O1571   1.977       .  S
Al313      O1581   1.900       .  S
Al313       O322   1.779       .  S
C314        O327   1.268       .  A
C314        C487   1.474       .  S
O315        C325   1.253       .  A
O315       Al317   1.890       .  S
O316        C329   1.265       .  A
O316       Al326   1.881       .  S
Al317       O330   1.946       .  S
Al317       O327   1.945       .  S
Al317       O322   1.777       .  S
O318        C325   1.259       .  A
O318       Al326   1.908       .  S
O319       C1588   1.262       .  A
O319       Al326   1.926       .  S
O320       C1570   1.261       .  A
O320       Al326   1.873       .  S
O321        C328   1.257       .  A
O321      Al1573   1.900       .  S
O322       Al326   1.780       .  S
O323        C324   1.270       .  A
C324        C551   1.478       .  S
C325       C1204   1.465       .  S
C328       O1579   1.262   1_554  A
C328        C471   1.472       .  S
C329        O330   1.273       .  A
C329        C452   1.468       .  S
O331        C346   1.277       .  A
O331       Al339   1.950       .  S
C332        O342   1.273       .  A
C332        O333   1.265       .  A
C332        C599   1.459       .  S
O333       Al335   1.881       .  S
O334        C336   1.247       .  A
O334       Al335   1.876       .  S
Al335       O343   1.887       .  S
Al335       O345   1.873       .  S
Al335       O344   1.783       .  S
C336        O349   1.255       .  A
C336        C583   1.476       .  S
O337        C347   1.268       .  A
O337       Al339   1.945       .  S
O338        C351   1.264       .  A
O338       Al348   1.934       .  S
Al339       O352   1.881       .  S
Al339       O349   1.926       .  S
Al339       O344   1.791       .  S
O340        C347   1.253       .  A
O340       Al348   1.858       .  S
O341        C350   1.259       .  A
O341       Al348   1.932       .  S
O342       Al348   1.950       .  S
O343        C350   1.252       .  A
O344       Al348   1.791       .  S
O345        C346   1.267       .  A
C346        C468   1.462       .  S
C347        C420   1.472       .  S
C350        C455   1.474       .  S
C351        O352   1.253       .  A
C351        C439   1.482       .  S
O353        C368   1.273       .  A
O353       Al361   1.949       .  S
C354        O364   1.272       .  A
C354       O1615   1.262       .  A
C354        C999   1.465       .  S
O355       C1614   1.262   1_554  A
O355       Al357   1.877       .  S
O356        C358   1.255       .  A
O356       Al357   1.903       .  S
Al357       O365   1.905       .  S
Al357       O367   1.875       .  S
Al357       O366   1.793       .  S
C358        O371   1.255       .  A
C358        C980   1.477       .  S
O359        C369   1.264       .  A
O359       Al361   1.932       .  S
O360        C373   1.266       .  A
O360       Al370   1.947       .  S
Al361       O374   1.873       .  S
Al361       O371   1.910       .  S
Al361       O366   1.792       .  S
O362        C369   1.254   1_556  A
O362       Al370   1.873   1_556  S
O363        C372   1.257       .  A
O363      Al1630   1.911       .  S
O364      Al1630   1.945       .  S
O365       C1632   1.255       .  A
O366       Al370   1.793       .  S
O367        C368   1.263       .  A
C368        C519   1.464       .  S
C369        C404   1.478       .  S
Al370      O1623   1.911       .  S
Al370      O1624   1.945   1_554  S
C372       O1625   1.255       .  A
C372        C503   1.480       .  S
C373        O374   1.255       .  A
C373        C436   1.487       .  S
O375        C390   1.272       .  A
O375       Al383   1.935       .  S
C376        O386   1.272       .  A
C376        O377   1.262       .  A
C376        C631   1.456       .  S
O377       Al379   1.873       .  S
O378        C380   1.251       .  A
O378       Al379   1.895       .  S
Al379       O387   1.908       .  S
Al379       O389   1.873       .  S
Al379       O388   1.793       .  S
C380        O393   1.254       .  A
C380        C615   1.474       .  S
O381        C391   1.266       .  A
O381       Al383   1.941       .  S
O382        C395   1.261       .  A
O382       Al392   1.926       .  S
Al383       O396   1.870       .  S
Al383       O393   1.905       .  S
Al383       O388   1.794       .  S
O384        C391   1.252       .  A
O384       Al392   1.856       .  S
O385        C394   1.254       .  A
O385       Al392   1.908       .  S
O386       Al392   1.940       .  S
O387        C394   1.254       .  A
O388       Al392   1.794       .  S
O389        C390   1.265       .  A
C390        C871   1.456       .  S
C391        C423   1.476       .  S
C394        C852   1.479       .  S
C395        O396   1.253       .  A
C395        C407   1.475       .  S
C397        C402   1.386       .  A
C397        C398   1.402       .  A
C397       S1663   1.714       .  A
C398        C399   1.405       .  A
C398        H409   1.083       .  S
C399        C408   1.369       .  A
C399        C400   1.386       .  A
C400        C401   1.404       .  A
C400        S406   1.715       .  A
C401        C402   1.406       .  A
C401        H410   1.083       .  S
C402        C405   1.371       .  A
S403        C404   1.722       .  A
S403       C1657   1.714   1_554  A
C404       C1665   1.391   1_554  A
C405       C1664   1.391       .  A
C405        H411   1.083       .  S
S406        C407   1.723       .  A
C407        C408   1.389       .  A
C408        H412   1.084       .  S
C413        C418   1.388       .  A
C413        C414   1.405       .  A
C413        S419   1.701       .  A
C414        C415   1.403       .  A
C414        H425   1.083       .  S
C415        C424   1.380       .  A
C415        C416   1.387       .  A
C416        C417   1.403       .  A
C416        S422   1.698       .  A
C417        C418   1.400       .  A
C417        H426   1.083       .  S
C418        C421   1.378       .  A
S419        C420   1.727       .  A
C420        C421   1.385       .  A
C421        H427   1.083       .  S
S422        C423   1.727       .  A
C423        C424   1.387       .  A
C424        H428   1.083       .  S
C429        C434   1.385       .  A
C429        C430   1.409       .  A
C429        S435   1.722       .  A
C430        C431   1.411       .  A
C430        H441   1.083       .  S
C431        C440   1.377       .  A
C431        C432   1.386       .  A
C432        C433   1.403       .  A
C432        S438   1.714       .  A
C433        C434   1.405       .  A
C433        H442   1.083       .  S
C434        C437   1.370       .  A
S435        C436   1.727       .  A
C436        C437   1.391       .  A
C437        H443   1.083       .  S
S438        C439   1.722       .  A
C439        C440   1.394       .  A
C440        H444   1.083       .  S
C445        C450   1.387       .  A
C445        C446   1.409       .  A
C445        S451   1.713       .  A
C446        C447   1.408       .  A
C446        H457   1.082       .  S
C447        C456   1.382       .  A
C447        C448   1.388       .  A
C448        C449   1.397       .  A
C448        S454   1.695       .  A
C449        C450   1.397       .  A
C449        H458   1.083       .  S
C450        C453   1.368       .  A
S451        C452   1.724       .  A
C452        C453   1.382       .  A
C453        H459   1.083       .  S
S454        C455   1.723       .  A
C455        C456   1.390       .  A
C456        H460   1.082       .  S
C461        C466   1.388       .  A
C461        C462   1.398       .  A
C461        S467   1.702       .  A
C462        C463   1.399       .  A
C462        H473   1.083       .  S
C463        C472   1.368       .  A
C463        C464   1.387       .  A
C464        C465   1.405       .  A
C464        S470   1.711       .  A
C465        C466   1.405       .  A
C465        H474   1.083       .  S
C466        C469   1.374       .  A
S467        C468   1.719       .  A
C468        C469   1.386       .  A
C469        H475   1.083       .  S
S470        C471   1.725       .  A
C471        C472   1.384       .  A
C472       H1736   1.083       .  S
H476       C1732   1.083       .  S
C477        C482   1.385       .  A
C477        C478   1.402       .  A
C477        S483   1.718       .  A
C478        C479   1.406       .  A
C478        H489   1.083       .  S
C479        C488   1.367       .  A
C479        C480   1.386       .  A
C480        C481   1.400       .  A
C480       S1746   1.714   1_554  A
C481        C482   1.404       .  A
C481        H490   1.083   1_554  S
C482        C485   1.363       .  A
S483        C484   1.722       .  A
C484        C485   1.390       .  A
C485        H491   1.084       .  S
S486        C487   1.721       .  A
S486       C1740   1.714       .  A
C487       C1748   1.390       .  A
C488       C1747   1.390   1_554  A
C488        H492   1.083       .  S
C493        C498   1.387       .  A
C493        C494   1.404       .  A
C493        S499   1.711       .  A
C494        C495   1.405       .  A
C494        H505   1.082       .  S
C495        C504   1.372       .  A
C495        C496   1.386       .  A
C496        C497   1.405       .  A
C496        S502   1.714       .  A
C497        C498   1.406       .  A
C497        H506   1.082       .  S
C498        C501   1.375       .  A
S499        C500   1.722       .  A
C500        C501   1.387       .  A
C501        H507   1.083       .  S
S502        C503   1.724       .  A
C503        C504   1.390       .  A
C504        H508   1.083       .  S
C509        C514   1.386       .  A
C509        C510   1.406       .  A
C509        S515   1.713       .  A
C510        C511   1.406       .  A
C510        H521   1.082       .  S
C511        C520   1.376       .  A
C511        C512   1.388       .  A
C512        C513   1.400       .  A
C512        S518   1.704       .  A
C513        C514   1.401       .  A
C513        H522   1.083       .  S
C514        C517   1.369       .  A
S515        C516   1.725       .  A
C516        C517   1.387       .  A
C517        H523   1.083       .  S
S518        C519   1.719       .  A
C519        C520   1.387       .  A
C520        H524   1.083       .  S
C525        C530   1.387       .  A
C525        C526   1.406       .  A
C525        S531   1.702       .  A
C526        C527   1.404       .  A
C526        H537   1.083       .  S
C527        C536   1.382       .  A
C527        C528   1.387       .  A
C528        C529   1.406       .  A
C528        S534   1.702       .  A
C529        C530   1.404       .  A
C529        H538   1.083       .  S
C530        C533   1.382       .  A
S531        C532   1.729       .  A
C532        C533   1.388       .  A
C533        H539   1.083       .  S
S534        C535   1.728       .  A
C535        C536   1.388       .  A
C536        H540   1.083       .  S
C541        C546   1.385       .  A
C541        C542   1.404       .  A
C541        S547   1.720       .  A
C542        C543   1.408       .  A
C542        H553   1.084       .  S
C543        C552   1.369       .  A
C543        C544   1.385       .  A
C544        C545   1.402       .  A
C544        S550   1.718       .  A
C545        C546   1.406       .  A
C545        H554   1.083       .  S
C546        C549   1.367       .  A
S547        C548   1.724       .  A
C548        C549   1.391       .  A
C549        H555   1.084       .  S
S550        C551   1.721       .  A
C551        C552   1.393       .  A
C552        H556   1.084       .  S
C557        C562   1.386       .  A
C557        C558   1.403   1_565  A
C557        S563   1.718       .  A
C558        C559   1.406       .  A
C558        H569   1.083       .  S
C559        C568   1.368       .  A
C559        C560   1.386       .  A
C560        C561   1.403   1_545  A
C560        S566   1.717       .  A
C561        C562   1.407       .  A
C561        H570   1.083       .  S
C562        C565   1.369       .  A
S563        C564   1.723       .  A
C564        C565   1.392       .  A
C565        H571   1.083       .  S
S566        C567   1.722       .  A
C567        C568   1.390       .  A
C568        H572   1.083       .  S
C573        C578   1.387       .  A
C573        C574   1.407       .  A
C573        S579   1.709       .  A
C574        C575   1.406       .  A
C574        H585   1.082       .  S
C575        C584   1.380       .  A
C575        C576   1.387       .  A
C576        C577   1.401       .  A
C576        S582   1.699       .  A
C577        C578   1.400       .  A
C577        H586   1.082       .  S
C578        C581   1.373       .  A
S579        C580   1.723       .  A
C580        C581   1.383       .  A
C581        H587   1.083       .  S
S582        C583   1.725       .  A
C583        C584   1.389       .  A
C584        H588   1.082       .  S
C589        C594   1.386       .  A
C589        C590   1.404       .  A
C589        S595   1.715       .  A
C590        C591   1.406       .  A
C590        H601   1.083       .  S
C591        C600   1.371       .  A
C591        C592   1.388       .  A
C592        C593   1.398       .  A
C592        S598   1.708       .  A
C593        C594   1.401       .  A
C593        H602   1.083       .  S
C594        C597   1.365       .  A
S595        C596   1.724       .  A
C596        C597   1.386       .  A
C597        H603   1.083       .  S
S598        C599   1.717       .  A
C599        C600   1.385       .  A
C600        H604   1.083       .  S
C605        C610   1.387   1_556  A
C605        C606   1.404       .  A
C605        S611   1.714       .  A
C606       C1867   1.406       .  A
C606        H617   1.082       .  S
C607        C616   1.373       .  A
C607        C608   1.387       .  A
C607       C1866   1.406       .  A
C608        C609   1.402       .  A
C608        S614   1.710       .  A
C609       C1870   1.403       .  A
C609        H618   1.082       .  S
C610        C613   1.370       .  A
C610       C1869   1.403       .  A
S611        C612   1.721   1_556  A
C612        C613   1.384       .  A
C613        H619   1.083       .  S
S614        C615   1.721       .  A
C615        C616   1.390       .  A
C616        H620   1.083       .  S
C621        C626   1.387       .  A
C621        C622   1.404       .  A
C621        S627   1.712       .  A
C622        C623   1.406       .  A
C622        H633   1.083       .  S
C623        C632   1.371       .  A
C623        C624   1.388       .  A
C624        C625   1.396       .  A
C624        S630   1.704       .  A
C625        C626   1.398       .  A
C625        H634   1.083       .  S
C626        C629   1.364       .  A
S627        C628   1.725       .  A
C628        C629   1.384       .  A
C629        H635   1.083       .  S
S630        C631   1.715       .  A
C631        C632   1.386       .  A
C632        H636   1.083       .  S
C637        C642   1.385       .  A
C637        C638   1.405       .  A
C637        S643   1.719       .  A
C638        C639   1.408       .  A
C638        H649   1.083       .  S
C639        C648   1.373       .  A
C639        C640   1.387       .  A
C640        C641   1.399       .  A
C640        S646   1.710       .  A
C641        C642   1.402       .  A
C641        H650   1.083       .  S
C642        C645   1.365       .  A
S643        C644   1.724       .  A
C644        C645   1.389       .  A
C645        H651   1.084       .  S
S646        C647   1.721       .  A
C647        C648   1.391       .  A
C648        H652   1.083       .  S
C653        C658   1.387       .  A
C653        C654   1.403       .  A
C653        S659   1.699       .  A
C654        C655   1.401       .  A
C654        H665   1.083       .  S
C655        C664   1.378       .  A
C655        C656   1.388       .  A
C656        C657   1.404       .  A
C656        S662   1.700       .  A
C657        C658   1.402       .  A
C657        H666   1.083   1_554  S
C658       C1921   1.379   1_554  A
S659       C1920   1.727       .  A
C660        C661   1.386       .  A
C660       S1919   1.727       .  A
C661       C1918   1.379       .  A
C661        H667   1.083       .  S
S662        C663   1.726       .  A
C663        C664   1.385       .  A
C664        H668   1.083       .  S
C669        C674   1.388       .  A
C669        C670   1.400       .  A
C669        S675   1.700       .  A
C670        C671   1.400       .  A
C670        H681   1.083       .  S
C671        C680   1.372       .  A
C671        C672   1.388       .  A
C672        C673   1.403       .  A
C672        S678   1.706       .  A
C673        C674   1.403       .  A
C673        H682   1.082       .  S
C674        C677   1.374       .  A
S675        C676   1.723       .  A
C676        C677   1.386       .  A
C677        H683   1.083       .  S
S678        C679   1.720       .  A
C679        C680   1.382       .  A
C680        H684   1.083       .  S
C685        C690   1.388       .  A
C685        C686   1.398       .  A
C685        S691   1.708       .  A
C686        C687   1.401       .  A
C686        H697   1.083       .  S
C687        C696   1.365       .  A
C687        C688   1.386       .  A
C688        C689   1.403       .  A
C688        S694   1.714       .  A
C689        C690   1.405       .  A
C689        H698   1.083       .  S
C690        C693   1.370       .  A
S691        C692   1.716       .  A
C692        C693   1.384       .  A
C693        H699   1.083       .  S
S694        C695   1.723       .  A
C695        C696   1.386       .  A
C696       H1960   1.083       .  S
H700       C1956   1.083       .  S
C701        C706   1.388       .  A
C701        C702   1.398       .  A
C701        S707   1.705       .  A
C702        C703   1.399       .  A
C702        H713   1.082       .  S
C703        C712   1.366       .  A
C703        C704   1.386       .  A
C704        C705   1.405       .  A
C704        S710   1.713       .  A
C705        C706   1.407       .  A
C705        H714   1.082       .  S
C706        C709   1.373       .  A
S707        C708   1.716       .  A
C708        C709   1.387       .  A
C709        H715   1.083       .  S
S710        C711   1.726       .  A
C711        C712   1.385       .  A
C712        H716   1.083       .  S
C717        C722   1.387       .  A
C717        C718   1.408       .  A
C717        S723   1.715       .  A
C718        C719   1.408       .  A
C718        H729   1.083       .  S
C719        C728   1.379       .  A
C719        C720   1.387       .  A
C720        C721   1.398       .  A
C720        S726   1.700       .  A
C721        C722   1.399       .  A
C721        H730   1.083       .  S
C722        C725   1.368       .  A
S723        C724   1.724       .  A
C724        C725   1.384       .  A
C725        H731   1.083       .  S
S726        C727   1.721       .  A
C727        C728   1.389       .  A
C728        H732   1.083       .  S
C733        C738   1.386       .  A
C733        C734   1.403       .  A
C733        S739   1.713       .  A
C734        C735   1.406       .  A
C734        H745   1.083       .  S
C735        C744   1.370       .  A
C735        C736   1.386       .  A
C736        C737   1.402       .  A
C736       S2002   1.713       .  A
C737        C738   1.405       .  A
C737       H2006   1.083       .  S
C738        C741   1.371       .  A
S739        C740   1.724       .  A
C740        C741   1.389       .  A
C741        H747   1.083       .  S
S742        C743   1.721       .  A
S742       C1996   1.713   1_554  A
C743       C2004   1.390   1_554  A
C744       C2003   1.390       .  A
C744        H748   1.084       .  S
H746       C1997   1.083   1_554  S
C749        C754   1.388       .  A
C749       C2010   1.399       .  A
C749        S755   1.702       .  A
C750        C751   1.399       .  A
C750       C2009   1.399       .  A
C750        H761   1.082       .  S
C751        C760   1.368       .  A
C751        C752   1.387       .  A
C752        C753   1.405       .  A
C752        S758   1.711       .  A
C753       C2014   1.406       .  A
C753       H2022   1.082       .  S
C754        C757   1.375       .  A
C754       C2013   1.406       .  A
S755        C756   1.719       .  A
C756        C757   1.387       .  A
C757        H763   1.083       .  S
S758        C759   1.725       .  A
C759        C760   1.385       .  A
C760        H764   1.083       .  S
H762       C2013   1.082       .  S
C765        C770   1.387       .  A
C765        C766   1.399       .  A
C765        S771   1.704       .  A
C766        C767   1.400       .  A
C766        H777   1.082       .  S
C767        C776   1.368       .  A
C767        C768   1.386       .  A
C768        C769   1.408       .  A
C768        S774   1.717       .  A
C769        C770   1.409       .  A
C769        H778   1.082       .  S
C770        C773   1.378       .  A
S771        C772   1.721       .  A
C772        C773   1.389       .  A
C773        H779   1.083       .  S
S774        C775   1.726       .  A
C775        C776   1.386       .  A
C776        H780   1.083       .  S
C781        C786   1.387       .  A
C781        C782   1.399       .  A
C781        S787   1.702       .  A
C782        C783   1.400       .  A
C782        H793   1.083       .  S
C783        C792   1.369       .  A
C783        C784   1.387       .  A
C784        C785   1.408       .  A
C784        S790   1.715       .  A
C785        C786   1.408       .  A
C785        H794   1.083       .  S
C786        C789   1.379       .  A
S787        C788   1.722       .  A
C788        C789   1.390       .  A
C789       H2055   1.083       .  S
S790        C791   1.725       .  A
C791        C792   1.384       .  A
C792        H796   1.083       .  S
H795       C2049   1.083       .  S
C797        C802   1.388       .  A
C797        C798   1.399       .  A
C797        S803   1.706       .  A
C798        C799   1.400       .  A
C798        H809   1.083       .  S
C799        C808   1.367       .  A
C799        C800   1.387       .  A
C800        C801   1.403       .  A
C800        S806   1.711       .  A
C801        C802   1.404       .  A
C801        H810   1.083       .  S
C802        C805   1.371       .  A
S803        C804   1.717       .  A
C804        C805   1.385       .  A
C805        H811   1.083       .  S
S806        C807   1.723       .  A
C807        C808   1.386       .  A
C808        H812   1.083       .  S
C813        C818   1.386       .  A
C813        C814   1.401       .  A
C813        S819   1.714       .  A
C814        C815   1.405       .  A
C814        H825   1.083       .  S
C815        C824   1.366       .  A
C815        C816   1.386       .  A
C816        C817   1.403       .  A
C816        S822   1.717       .  A
C817        C818   1.406       .  A
C817        H826   1.083       .  S
C818        C821   1.369       .  A
S819        C820   1.722       .  A
C820        C821   1.390       .  A
C821        H827   1.083       .  S
S822        C823   1.722       .  A
C823        C824   1.391       .  A
C824        H828   1.083       .  S
C829        C834   1.386       .  A
C829        C830   1.401   1_565  A
C829        S835   1.715       .  A
C830        C831   1.405       .  A
C830        H841   1.083       .  S
C831        C840   1.366       .  A
C831        C832   1.386       .  A
C832        C833   1.401   1_545  A
C832        S838   1.715       .  A
C833        C834   1.405       .  A
C833        H842   1.083       .  S
C834        C837   1.366       .  A
S835        C836   1.722       .  A
C836        C837   1.389       .  A
C837        H843   1.083       .  S
S838        C839   1.722       .  A
C839        C840   1.389       .  A
C840        H844   1.083       .  S
C845        C850   1.387       .  A
C845        C846   1.403       .  A
C845        S851   1.706       .  A
C846        C847   1.403       .  A
C846        H857   1.082       .  S
C847        C856   1.374       .  A
C847        C848   1.387       .  A
C848        C849   1.406       .  A
C848        S854   1.711       .  A
C849        C850   1.406       .  A
C849        H858   1.082       .  S
C850        C853   1.378       .  A
S851        C852   1.724       .  A
C852        C853   1.390       .  A
C853        H859   1.083       .  S
S854        C855   1.723       .  A
C855        C856   1.384       .  A
C856        H860   1.083       .  S
C861        C866   1.386       .  A
C861        C862   1.404       .  A
C861        S867   1.713       .  A
C862       C2123   1.406       .  A
C862        H873   1.083       .  S
C863        C872   1.371       .  A
C863        C864   1.388       .  A
C863       C2122   1.406       .  A
C864        C865   1.394       .  A
C864        S870   1.700       .  A
C865       C2126   1.397       .  A
C865        H874   1.083       .  S
C866        C869   1.361       .  A
C866       C2125   1.397       .  A
S867        C868   1.724       .  A
C868        C869   1.384       .  A
C869        H875   1.083       .  S
S870        C871   1.715       .  A
C871        C872   1.385       .  A
C872        H876   1.083       .  S
C877        C882   1.386       .  A
C877       C2138   1.406       .  A
C877        S883   1.717       .  A
C878        C879   1.408       .  A
C878       C2137   1.406       .  A
C878        H889   1.083   1_556  S
C879        C888   1.375   1_556  A
C879        C880   1.387       .  A
C880       C2141   1.404       .  A
C880        S886   1.714       .  A
C881        C882   1.406       .  A
C881       C2140   1.404       .  A
C881        H890   1.083       .  S
C882        C885   1.373       .  A
S883        C884   1.725       .  A
C884        C885   1.391       .  A
C885        H891   1.083       .  S
S886        C887   1.721   1_556  A
C887        C888   1.388       .  A
C888        H892   1.083       .  S
C893        C898   1.388       .  A
C893        C894   1.402       .  A
C893        S899   1.705       .  A
C894        C895   1.402       .  A
C894        H905   1.082       .  S
C895        C904   1.372       .  A
C895        C896   1.387       .  A
C896        C897   1.401       .  A
C896        S902   1.702       .  A
C897        C898   1.400       .  A
C897        H906   1.083       .  S
C898        C901   1.370       .  A
S899        C900   1.718       .  A
C900        C901   1.382       .  A
C901        H907   1.083       .  S
S902        C903   1.724       .  A
C903        C904   1.385       .  A
C904        H908   1.083       .  S
C909        C914   1.388       .  A
C909        C910   1.404       .  A
C909        S915   1.701       .  A
C910        C911   1.401       .  A
C910        H921   1.083       .  S
C911        C920   1.379       .  A
C911        C912   1.388       .  A
C912        C913   1.403   1_554  A
C912        S918   1.698       .  A
C913        C914   1.401   1_556  A
C913        H922   1.083       .  S
C914       C2177   1.377   1_554  A
S915       C2176   1.725   1_554  A
C916        C917   1.385       .  A
C916       S2175   1.725       .  A
C917       C2174   1.377       .  A
C917        H923   1.083       .  S
S918        C919   1.728       .  A
C919        C920   1.385       .  A
C920        H924   1.083       .  S
C925        C930   1.388       .  A
C925        C926   1.398       .  A
C925        S931   1.704       .  A
C926        C927   1.399       .  A
C926        H937   1.083       .  S
C927        C936   1.367       .  A
C927        C928   1.386       .  A
C928        C929   1.407       .  A
C928        S934   1.714       .  A
C929        C930   1.408       .  A
C929        H938   1.083       .  S
C930        C933   1.375       .  A
S931        C932   1.717       .  A
C932        C933   1.388       .  A
C933        H939   1.083       .  S
S934        C935   1.726       .  A
C935        C936   1.385       .  A
C936        H940   1.083       .  S
C941        C946   1.387       .  A
C941        C942   1.399       .  A
C941        S947   1.700       .  A
C942        C943   1.399       .  A
C942        H953   1.082       .  S
C943        C952   1.371       .  A
C943        C944   1.387       .  A
C944        C945   1.407       .  A
C944        S950   1.710       .  A
C945        C946   1.406       .  A
C945        H954   1.082       .  S
C946        C949   1.378       .  A
S947        C948   1.722       .  A
C948        C949   1.389       .  A
C949        H955   1.083       .  S
S950        C951   1.723       .  A
C951        C952   1.382       .  A
C952        H956   1.083       .  S
C957        C962   1.387       .  A
C957        C958   1.405       .  A
C957        S963   1.701       .  A
C958        C959   1.403       .  A
C958        H969   1.083       .  S
C959        C968   1.379       .  A
C959        C960   1.387       .  A
C960        C961   1.406       .  A
C960        S966   1.705       .  A
C961        C962   1.404       .  A
C961        H970   1.083       .  S
C962        C965   1.381       .  A
S963        C964   1.728       .  A
C964        C965   1.388       .  A
C965        H971   1.083       .  S
S966        C967   1.726       .  A
C967        C968   1.387       .  A
C968        H972   1.083       .  S
C973        C978   1.386       .  A
C973        C974   1.407       .  A
C973        S979   1.716       .  A
C974        C975   1.408       .  A
C974        H985   1.083       .  S
C975        C984   1.375       .  A
C975        C976   1.388       .  A
C976        C977   1.399       .  A
C976        S982   1.706       .  A
C977        C978   1.400       .  A
C977        H986   1.083       .  S
C978        C981   1.367       .  A
S979        C980   1.726       .  A
C980        C981   1.386       .  A
C981        H987   1.083       .  S
S982        C983   1.718       .  A
C983        C984   1.388       .  A
C984        H988   1.083       .  S
C989        C994   1.386       .  A
C989        C990   1.406       .  A
C989        S995   1.716       .  A
C990        C991   1.407       .  A
C990       H1001   1.083       .  S
C991       C1000   1.375       .  A
C991        C992   1.388       .  A
C992        C993   1.399       .  A
C992        S998   1.706       .  A
C993        C994   1.400       .  A
C993       H1002   1.083       .  S
C994        C997   1.367       .  A
S995        C996   1.725       .  A
C996        C997   1.387       .  A
C997       H1003   1.083       .  S
S998        C999   1.719       .  A
C999       C1000   1.387       .  A
C1000      H2264   1.083       .  S
H1004      C2260   1.083       .  S
C1005      C1010   1.386       .  A
C1005      C1006   1.404   1_655  A
C1005      S1011   1.717       .  A
C1006      C1007   1.407       .  A
C1006      H1017   1.083       .  S
C1007      C1016   1.371       .  A
C1007      C1008   1.386       .  A
C1008      C1009   1.404   1_455  A
C1008      S1014   1.717       .  A
C1009      C1010   1.407       .  A
C1009      H1018   1.083       .  S
C1010      C1013   1.370       .  A
S1011      C1012   1.722       .  A
C1012      C1013   1.392       .  A
C1013      H1019   1.083       .  S
S1014      C1015   1.724       .  A
C1015      C1016   1.391       .  A
C1016      H1020   1.083       .  S
C1021      C1026   1.386       .  A
C1021      C1022   1.404       .  A
C1021      S1027   1.716       .  A
C1022      C1023   1.406       .  A
C1022      H1033   1.083       .  S
C1023      C1032   1.370       .  A
C1023      C1024   1.387       .  A
C1024      C1025   1.396       .  A
C1024      S1030   1.704       .  A
C1025      C1026   1.398       .  A
C1025      H1034   1.083       .  S
C1026      C1029   1.361       .  A
S1027      C1028   1.723       .  A
C1028      C1029   1.385       .  A
C1029      H1035   1.084       .  S
S1030      C1031   1.719       .  A
C1031      C1032   1.388       .  A
C1032      H1036   1.083       .  S
C1037      C1042   1.387       .  A
C1037      C1038   1.395       .  A
C1037      S1043   1.698       .  A
C1038      C1039   1.396       .  A
C1038      H1049   1.083       .  S
C1039      C1048   1.363       .  A
C1039      C1040   1.386       .  A
C1040      C1041   1.410       .  A
C1040      S1046   1.720       .  A
C1041      C1042   1.411       .  A
C1041      H1050   1.083       .  S
C1042      C1045   1.380       .  A
S1043      C1044   1.719       .  A
C1044      C1045   1.393       .  A
C1045      H1051   1.083       .  S
S1046      C1047   1.726       .  A
C1047      C1048   1.380       .  A
C1048      H1052   1.084       .  S
C1053      C1058   1.387       .  A
C1053      C1054   1.409       .  A
C1053      S1059   1.714       .  A
C1054      C1055   1.408       .  A
C1054      H1065   1.082       .  S
C1055      C1064   1.381       .  A
C1055      C1056   1.387       .  A
C1056      C1057   1.398       .  A
C1056      S1062   1.698       .  A
C1057      C1058   1.398       .  A
C1057      H1066   1.082       .  S
C1058      C1061   1.368       .  A
S1059      C1060   1.725       .  A
C1060      C1061   1.384       .  A
C1061      H1067   1.083       .  S
S1062      C1063   1.723       .  A
C1063      C1064   1.391       .  A
C1064      H1068   1.082       .  S
C1069      C1074   1.387       .  A
C1069      C1070   1.404       .  A
C1069      S1075   1.705       .  A
C1070      C1071   1.403       .  A
C1070      H1081   1.082       .  S
C1071      C1080   1.376       .  A
C1071      C1072   1.388       .  A
C1072      C1073   1.405       .  A
C1072      S1078   1.706       .  A
C1073      C1074   1.404       .  A
C1073      H1082   1.083       .  S
C1074      C1077   1.377       .  A
S1075      C1076   1.724       .  A
C1076      C1077   1.389       .  A
C1077      H1083   1.083       .  S
S1078      C1079   1.721       .  A
C1079      C1080   1.385       .  A
C1080      H1084   1.082       .  S
C1085      C1090   1.387       .  A
C1085      C1086   1.401       .  A
C1085      S1091   1.713       .  A
C1086      C1087   1.404       .  A
C1086      H1097   1.084       .  S
C1087      C1096   1.367       .  A
C1087      C1088   1.387       .  A
C1088      C1089   1.398       .  A
C1088      S1094   1.710       .  A
C1089      C1090   1.402       .  A
C1089      H1098   1.084       .  S
C1090      C2353   1.365       .  A
S1091      C2352   1.721       .  A
C1092      C1093   1.385   1_554  A
C1092      S2351   1.721       .  A
C1093      C2350   1.365       .  A
C1093      H1099   1.084       .  S
S1094      C1095   1.718       .  A
C1095      C1096   1.387       .  A
C1096      H1100   1.084       .  S
C1101      C1106   1.388       .  A
C1101      C1102   1.396       .  A
C1101      S1107   1.698       .  A
C1102      C1103   1.397       .  A
C1102      H1113   1.083       .  S
C1103      C1112   1.367       .  A
C1103      C1104   1.386       .  A
C1104      C1105   1.409       .  A
C1104      S1110   1.715       .  A
C1105      C1106   1.410       .  A
C1105      H1114   1.083       .  S
C1106      C1109   1.380       .  A
S1107      C1108   1.719       .  A
C1108      C1109   1.390       .  A
C1109      H1115   1.083       .  S
S1110      C1111   1.728       .  A
C1111      C1112   1.384       .  A
C1112      H1116   1.083       .  S
C1117      C1122   1.388   1_554  A
C1117      C1118   1.398   1_554  A
C1117      S1123   1.699       .  A
C1118      C2379   1.398       .  A
C1118      H1129   1.083   1_556  S
C1119      C1128   1.369       .  A
C1119      C1120   1.386       .  A
C1119      C2378   1.398       .  A
C1120      C1121   1.408       .  A
C1120      S1126   1.714       .  A
C1121      C2382   1.408       .  A
C1121      H1130   1.082       .  S
C1122      C1125   1.380   1_556  A
C1122      C2381   1.408       .  A
S1123      C1124   1.720       .  A
C1124      C1125   1.388       .  A
C1125      H2391   1.082   1_554  S
S1126      C1127   1.727       .  A
C1127      C1128   1.385       .  A
C1128      H1132   1.083       .  S
H1131      C2385   1.082       .  S
C1133      C1134   1.399   1_556  A
C1133      C2398   1.387   1_556  A
C1133      S2399   1.704       .  A
C1134      C1135   1.400       .  A
C1134      H1145   1.083       .  S
C1135      C1144   1.366       .  A
C1135      C1136   1.387       .  A
C1136      C2397   1.403       .  A
C1136      S1142   1.712       .  A
C1137      C1138   1.404       .  A
C1137      C2396   1.403       .  A
C1137      H1146   1.083       .  S
C1138      C1141   1.371       .  A
C1138      C2393   1.387       .  A
S1139      C1140   1.722       .  A
S1139      C2393   1.704       .  A
C1140      C1141   1.387       .  A
C1141      H1147   1.083       .  S
S1142      C1143   1.722       .  A
C1143      C1144   1.385       .  A
C1144      H1148   1.084       .  S
C1149      C1154   1.386       .  A
C1149      C1150   1.409       .  A
C1149      S1155   1.720       .  A
C1150      C1151   1.410       .  A
C1150      H1161   1.082       .  S
C1151      C1160   1.379       .  A
C1151      C1152   1.387       .  A
C1152      C1153   1.399       .  A
C1152      S1158   1.704       .  A
C1153      C1154   1.400       .  A
C1153      H1162   1.083       .  S
C1154      C1157   1.367       .  A
S1155      C1156   1.724       .  A
C1156      C1157   1.384       .  A
C1157      H1163   1.083       .  S
S1158      C1159   1.722       .  A
C1159      C1160   1.392       .  A
C1160      H1164   1.083       .  S
C1165      C1170   1.387       .  A
C1165      C1166   1.401   1_655  A
C1165      S1171   1.714       .  A
C1166      C1167   1.405       .  A
C1166      H1177   1.083       .  S
C1167      C1176   1.366       .  A
C1167      C1168   1.386       .  A
C1168      C1169   1.403       .  A
C1168      S1174   1.719       .  A
C1169      C1170   1.406   1_455  A
C1169      H1178   1.083       .  S
C1170      C1173   1.369       .  A
S1171      C1172   1.719       .  A
C1172      C1173   1.388       .  A
C1173      H1179   1.083       .  S
S1174      C1175   1.721       .  A
C1175      C1176   1.391       .  A
C1176      H1180   1.084       .  S
C1181      C1186   1.386       .  A
C1181      C1182   1.405       .  A
C1181      S1187   1.720       .  A
C1182      C1183   1.408       .  A
C1182      H1193   1.082       .  S
C1183      C1192   1.371       .  A
C1183      C1184   1.386       .  A
C1184      C1185   1.404       .  A
C1184      S1190   1.719       .  A
C1185      C1186   1.408       .  A
C1185      H1194   1.082       .  S
C1186      C1189   1.370       .  A
S1187      C1188   1.722       .  A
C1188      C1189   1.391       .  A
C1189      H1195   1.083       .  S
S1190      C1191   1.723       .  A
C1191      C1192   1.391       .  A
C1192      H1196   1.083       .  S
C1197      C1202   1.387       .  A
C1197      C1198   1.405       .  A
C1197      S1203   1.710       .  A
C1198      C1199   1.406       .  A
C1198      H1209   1.083       .  S
C1199      C1208   1.374       .  A
C1199      C1200   1.388       .  A
C1200      C1201   1.393       .  A
C1200      S1206   1.693       .  A
C1201      C1202   1.394       .  A
C1201      H1210   1.083       .  S
C1202      C1205   1.362       .  A
S1203      C1204   1.725       .  A
C1204      C1205   1.381       .  A
C1205      H1211   1.083       .  S
S1206      C1207   1.719       .  A
C1207      C1208   1.388       .  A
C1208      H1212   1.083       .  S
C1213      C1218   1.386       .  A
C1213      C1214   1.402       .  A
C1213      S1219   1.715       .  A
C1214      C1215   1.405       .  A
C1214      H1225   1.083       .  S
C1215      C1224   1.369       .  A
C1215      C1216   1.386       .  A
C1216      C1217   1.406       .  A
C1216      S1222   1.719       .  A
C1217      C1218   1.408       .  A
C1217      H1226   1.083       .  S
C1218      C1221   1.372       .  A
S1219      C1220   1.722       .  A
C1220      C1221   1.391       .  A
C1221      H1227   1.083       .  S
S1222      C1223   1.723       .  A
C1223      C1224   1.388       .  A
C1224      H1228   1.083       .  S
C1229      C1234   1.387       .  A
C1229      C1230   1.402       .  A
C1229      S1235   1.707       .  A
C1230      C1231   1.402       .  A
C1230      H1241   1.082       .  S
C1231      C1240   1.373       .  A
C1231      C1232   1.387       .  A
C1232      C1233   1.401       .  A
C1232      S1238   1.703       .  A
C1233      C1234   1.401       .  A
C1233      H1242   1.082       .  S
C1234      C1237   1.370       .  A
S1235      C1236   1.722       .  A
C1236      C1237   1.387       .  A
C1237      H1243   1.083       .  S
S1238      C1239   1.724       .  A
C1239      C1240   1.385       .  A
C1240      H1244   1.082       .  S
C1245      C1250   1.386       .  A
C1245      C1246   1.401       .  A
C1245      S1251   1.711       .  A
C1246      C1247   1.403       .  A
C1246      H1257   1.082       .  S
C1247      C1256   1.367       .  A
C1247      C1248   1.387       .  A
C1248      C1249   1.403       .  A
C1248      S1254   1.715       .  A
C1249      C1250   1.406       .  A
C1249      H1258   1.082       .  S
C1250      C1253   1.371       .  A
S1251      C1252   1.722       .  A
C1252      C1253   1.389       .  A
C1253      H1259   1.083       .  S
S1254      C1255   1.720       .  A
C1255      C1256   1.385       .  A
C1256      H1260   1.083       .  S
O1261      C1276   1.252       .  A
O1261     Al1269   1.852       .  S
C1262      O1272   1.270       .  A
C1262      O1263   1.280       .  A
C1262      C2467   1.465       .  S
O1263     Al1265   1.957       .  S
O1264      C1266   1.252       .  A
O1264     Al1265   1.868       .  S
Al1265     O1273   1.916       .  S
Al1265     O1275   1.948       .  S
Al1265     O1274   1.781       .  S
C1266      O1279   1.265       .  A
C1266      C2451   1.479       .  S
O1267      C1277   1.254       .  A
O1267     Al1269   1.908       .  S
O1268      C1281   1.271       .  A
O1268     Al1278   1.887       .  S
Al1269     O1282   1.953       .  S
Al1269     O1279   1.943       .  S
Al1269     O1274   1.780       .  S
O1270      C1277   1.255       .  A
O1270     Al1278   1.917       .  S
O1271      C1280   1.252       .  A
O1271     Al1278   1.910       .  S
O1272     Al1278   1.868       .  S
O1273      C1280   1.255       .  A
O1274     Al1278   1.782       .  S
O1275      C1276   1.268       .  A
C1276      C2435   1.477       .  S
C1277      C2512   1.475       .  S
C1280      C2480   1.477       .  S
C1281      O1282   1.279       .  A
C1281      C2496   1.471       .  S
O1283      C1298   1.259       .  A
O1283     Al1291   1.899   1_655  S
C1284      O1294   1.268       .  A
C1284      O1285   1.266       .  A
C1284      C2368   1.470       .  S
O1285     Al1287   1.910       .  S
O1286      C1288   1.259       .  A
O1286     Al1287   1.902       .  S
Al1287     O1295   1.911   1_455  S
Al1287     O1297   1.899   1_455  S
Al1287     O1296   1.788       .  S
C1288      O1301   1.262       .  A
C1288      C2387   1.477       .  S
O1289      C1299   1.264       .  A
O1289     Al1291   1.938       .  S
O1290      C1303   1.268       .  A
O1290     Al1300   1.912       .  S
Al1291     O1304   1.901   1_455  S
Al1291     O1301   1.906       .  S
Al1291     O1296   1.784       .  S
O1292      C1299   1.256       .  A
O1292     Al1300   1.897   1_455  S
O1293      C1302   1.259       .  A
O1293     Al1300   1.914       .  S
O1294     Al1300   1.923   1_455  S
O1295      C1302   1.257       .  A
O1296     Al1300   1.788   1_455  S
O1297      C1298   1.258       .  A
C1298      C2400   1.469       .  S
C1299      C2448   1.479       .  S
C1302      C2419   1.477       .  S
C1303      O1304   1.264       .  A
C1303      C2355   1.465       .  S
O1305      C1320   1.258       .  A
C1306      O1316   1.265       .  A
C1306      O1307   1.269       .  A
C1306      C2320   1.471       .  S
O1307     Al1309   1.928       .  S
O1308     Al1309   1.887       .  S
Al1309     O1317   1.907       .  S
Al1309     O1319   1.910       .  S
Al1309     O1318   1.784       .  S
C1310      O1323   1.262   1_554  A
C1310      C2336   1.476   1_554  S
O1311      C1321   1.262       .  A
O1311     Al1313   1.922       .  S
O1312      C1325   1.266       .  A
O1312     Al1322   1.909       .  S
Al1313     O1326   1.912       .  S
Al1313     O1318   1.781       .  S
O1314      C1321   1.258       .  A
O1314     Al1322   1.904       .  S
O1315      C1324   1.259       .  A
O1315     Al1322   1.910       .  S
O1316     Al1322   1.906       .  S
O1317      C1324   1.256       .  A
O1318     Al1322   1.785       .  S
C1320      C2291   1.466       .  S
C1321      C2432   1.468       .  S
C1324      C2304   1.474       .  S
C1325      O1326   1.267       .  A
C1325      C2352   1.466       .  S
O1327      C1342   1.252       .  A
O1327     Al1335   1.869       .  S
C1328      O1338   1.264       .  A
C1328      O1329   1.275       .  A
C1328      C2339   1.466       .  S
O1329     Al1331   1.957       .  S
O1330      C1332   1.254       .  A
O1330     Al1331   1.865       .  S
Al1331     O1339   1.916       .  S
Al1331     O1341   1.940       .  S
Al1331     O1340   1.789       .  S
C1332      O1345   1.268       .  A
C1332      C2272   1.480       .  S
O1333      C1343   1.257       .  A
O1333     Al1335   1.925       .  S
O1334      C1347   1.267       .  A
O1334     Al1344   1.884       .  S
Al1335     O1348   1.951       .  S
Al1335     O1345   1.945       .  S
Al1335     O1340   1.784       .  S
O1336      C1343   1.251       .  A
O1336     Al1344   1.888       .  S
O1337      C1346   1.255       .  A
O1337     Al1344   1.905       .  S
O1338     Al1344   1.881       .  S
O1339      C1346   1.256       .  A
O1340     Al1344   1.785       .  S
O1341      C1342   1.264       .  A
C1342      C2227   1.475       .  S
C1343      C2323   1.477       .  S
C1346      C2256   1.476       .  S
C1347      O1348   1.276       .  A
C1347      C2243   1.466       .  S
O1349      C1364   1.251   1_554  A
O1349     Al1357   1.857   1_554  S
C1350      O1360   1.261       .  A
C1350      O1351   1.274       .  A
C1350      C2515   1.465       .  S
O1351     Al1353   1.960       .  S
O1352      C1354   1.256       .  A
O1352     Al1353   1.875       .  S
Al1353     O1361   1.915       .  S
Al1353     O1363   1.942       .  S
Al1353     O1362   1.792       .  S
C1354      O1367   1.267       .  A
C1354      C2275   1.482       .  S
O1355      C1365   1.256       .  A
O1356     Al1366   1.879       .  S
Al1357     O1367   1.942       .  S
Al1357     O1362   1.784       .  S
O1358     Al1366   1.892       .  S
O1359      C1368   1.256       .  A
O1359     Al1366   1.901       .  S
O1360     Al1366   1.870       .  S
O1361      C1368   1.257       .  A
O1362     Al1366   1.783       .  S
O1363      C1364   1.265       .  A
C1364      C2176   1.469       .  S
C1365      C2499   1.469       .  S
C1368      C2208   1.474       .  S
C1369      O1370   1.273       .  A
C1369      C2192   1.464       .  S
O1371      C1386   1.251       .  A
O1371     Al1379   1.863   1_655  S
C1372      O1382   1.271       .  A
C1372      O1373   1.282   1_455  A
C1372      C2147   1.470       .  S
O1373     Al1375   1.968       .  S
O1374      C1376   1.252       .  A
O1374     Al1375   1.855   1_455  S
Al1375     O1383   1.908       .  S
Al1375     O1385   1.940       .  S
Al1375     O1384   1.783       .  S
C1376      O1389   1.267       .  A
C1376      C2179   1.475       .  S
O1377      C1387   1.250       .  A
O1377     Al1379   1.906       .  S
O1378      C1391   1.272       .  A
O1378     Al1388   1.885       .  S
Al1379     O1392   1.962       .  S
Al1379     O1389   1.940       .  S
Al1379     O1384   1.780   1_455  S
O1380      C1387   1.245       .  A
O1380     Al1388   1.882   1_455  S
O1381      C1390   1.248       .  A
O1381     Al1388   1.883       .  S
O1382     Al1388   1.888   1_455  S
O1383      C1390   1.250       .  A
O1384     Al1388   1.784       .  S
O1385      C1386   1.265       .  A
C1386      C2224   1.481       .  S
C1387      C2163   1.469       .  S
C1390      C2128   1.468       .  S
C1391      O1392   1.282   1_655  A
C1391      C2115   1.467       .  S
O1393      C1408   1.273       .  A
O1393     Al1401   1.945       .  S
C1394      O1404   1.275       .  A
C1394      O1395   1.265       .  A
C1394      C2051   1.471       .  S
O1395     Al1397   1.880       .  S
O1396      C1398   1.256       .  A
O1396     Al1397   1.906       .  S
Al1397     O1405   1.903       .  S
Al1397     O1407   1.884       .  S
Al1397     O1406   1.790       .  S
C1398      O1411   1.255       .  A
C1398      C2067   1.471       .  S
O1399      C1409   1.263       .  A
O1399     Al1401   1.933       .  S
O1400      C1413   1.267       .  A
O1400     Al1410   1.943       .  S
Al1401     O1414   1.859       .  S
Al1401     O1411   1.902       .  S
Al1401     O1406   1.788       .  S
O1402      C1409   1.251       .  A
O1402     Al1410   1.858       .  S
O1403      C1412   1.253       .  A
O1403     Al1410   1.906       .  S
O1404     Al1410   1.951       .  S
O1405      C1412   1.254       .  A
O1406     Al1410   1.783       .  S
O1407      C1408   1.264       .  A
C1408      C2211   1.464       .  S
C1409      C2096   1.473       .  S
C1412      C2195   1.474       .  S
C1413      O1414   1.253       .  A
C1413      C2083   1.477       .  S
O1415      C1430   1.268       .  A
O1415     Al1423   1.936   1_565  S
C1416      O1426   1.272       .  A
C1416      O1417   1.263       .  A
C1416      C2016   1.464       .  S
O1417     Al1419   1.872   1_545  S
O1418      C1420   1.259       .  A
O1418     Al1419   1.915   1_545  S
Al1419     O1427   1.899       .  S
Al1419     O1429   1.878       .  S
Al1419     O1428   1.789       .  S
C1420      O1433   1.258       .  A
C1420      C2035   1.477       .  S
O1421      C1431   1.260       .  A
O1421     Al1423   1.921       .  S
O1422      C1435   1.268       .  A
O1422     Al1432   1.941       .  S
Al1423     O1436   1.870   1_545  S
Al1423     O1433   1.913       .  S
Al1423     O1428   1.791   1_545  S
O1424      C1431   1.255       .  A
O1424     Al1432   1.885   1_545  S
O1425      C1434   1.259       .  A
O1425     Al1432   1.924       .  S
O1426     Al1432   1.940   1_545  S
O1427      C1434   1.254       .  A
O1428     Al1432   1.790       .  S
O1429      C1430   1.260       .  A
C1430      C2160   1.456       .  S
C1431      C2000   1.478       .  S
C1434      C2144   1.484       .  S
C1435      O1436   1.256       .  A
C1435      C2080   1.475       .  S
O1437      C1452   1.274       .  A
C1438      O1448   1.274       .  A
C1438      O1439   1.266       .  A
C1438      C1939   1.460       .  S
O1439     Al1441   1.885       .  S
O1440     Al1441   1.888       .  S
Al1441     O1449   1.901       .  S
Al1441     O1451   1.887       .  S
Al1441     O1450   1.785       .  S
C1442      O1455   1.254   1_556  A
C1442      C1955   1.472       .  S
O1443      C1453   1.265       .  A
O1443     Al1445   1.931       .  S
O1444      C1457   1.263       .  A
O1444     Al1454   1.927       .  S
Al1445     O1458   1.868       .  S
Al1445     O1450   1.787       .  S
O1446      C1453   1.255       .  A
O1446     Al1454   1.867       .  S
O1447      C1456   1.256       .  A
O1447     Al1454   1.919       .  S
O1448     Al1454   1.948       .  S
O1449      C1456   1.253       .  A
O1450     Al1454   1.787       .  S
C1452      C1968   1.461       .  S
C1453      C2099   1.475       .  S
C1456      C1987   1.473       .  S
C1457      O1458   1.253       .  A
C1457      C2003   1.475       .  S
O1459      C1474   1.253       .  A
O1459     Al1467   1.859   1_565  S
C1460      O1470   1.267       .  A
C1460      O1461   1.278       .  A
C1460      C2416   1.471       .  S
O1461     Al1463   1.968   1_545  S
O1462      C1464   1.252       .  A
O1462     Al1463   1.859   1_545  S
Al1463     O1471   1.901       .  S
Al1463     O1473   1.946       .  S
Al1463     O1472   1.781       .  S
C1464      O1477   1.265       .  A
C1464      C1904   1.479       .  S
O1465      C1475   1.255       .  A
O1465     Al1467   1.907       .  S
O1466      C1479   1.267       .  A
O1466     Al1476   1.885       .  S
Al1467     O1480   1.962   1_545  S
Al1467     O1477   1.942       .  S
Al1467     O1472   1.777   1_545  S
O1468      C1475   1.256       .  A
O1468     Al1476   1.912   1_545  S
O1469      C1478   1.256       .  A
O1469     Al1476   1.905       .  S
O1470     Al1476   1.880   1_545  S
O1471      C1478   1.253       .  A
O1472     Al1476   1.778       .  S
O1473      C1474   1.268       .  A
C1474      C1923   1.472       .  S
C1475      C2403   1.467       .  S
C1478      C1888   1.470       .  S
C1479      O1480   1.276       .  A
C1479      C1872   1.465       .  S
O1481      C1496   1.252   1_554  A
O1481     Al1489   1.859   1_554  S
C1482      O1492   1.272       .  A
C1482      O1483   1.279       .  A
C1482      C2064   1.459       .  S
O1483     Al1485   1.947       .  S
O1484      C1486   1.253       .  A
O1484     Al1485   1.868       .  S
Al1485     O1493   1.911       .  S
Al1485     O1495   1.935       .  S
Al1485     O1494   1.785       .  S
C1486      O1499   1.264       .  A
C1486      C1824   1.480       .  S
O1487      C1497   1.252       .  A
O1488     Al1498   1.880       .  S
Al1489     O1499   1.935       .  S
Al1489     O1494   1.785       .  S
O1490     Al1498   1.902       .  S
O1491      C1500   1.248       .  A
O1491     Al1498   1.884       .  S
O1492     Al1498   1.884       .  S
O1493      C1500   1.251       .  A
O1494     Al1498   1.784       .  S
O1495      C1496   1.265       .  A
C1496      C1920   1.475   1_556  S
C1497      C2048   1.475       .  S
C1500      C1856   1.473       .  S
C1501      O1502   1.280       .  A
C1501      C1840   1.464       .  S
O1503      C1518   1.257       .  A
O1503     Al1511   1.887       .  S
C1504      O1514   1.263       .  A
C1504      O1505   1.271       .  A
C1504      C1952   1.458       .  S
O1505     Al1507   1.943       .  S
O1506      C1508   1.254       .  A
O1506     Al1507   1.864       .  S
Al1507     O1515   1.917       .  S
Al1507     O1517   1.927       .  S
Al1507     O1516   1.781       .  S
C1508      O1521   1.268       .  A
C1508      C1827   1.476       .  S
O1509      C1519   1.258       .  A
O1509     Al1511   1.914       .  S
O1510      C1523   1.265       .  A
O1510     Al1520   1.880       .  S
Al1511     O1524   1.959       .  S
Al1511     O1521   1.949       .  S
Al1511     O1516   1.786       .  S
O1512      C1519   1.254       .  A
O1512     Al1520   1.892       .  S
O1513      C1522   1.256       .  A
O1513     Al1520   1.894       .  S
O1514     Al1520   1.883       .  S
O1515      C1522   1.258       .  A
O1516     Al1520   1.776       .  S
O1517      C1518   1.264       .  A
C1518      C1907   1.475       .  S
C1519      C1936   1.470       .  S
C1522      C2288   1.469       .  S
C1523      O1524   1.273       .  A
C1523      C2307   1.469       .  S
O1525      C1540   1.253       .  A
O1525     Al1533   1.860       .  S
C1526      O1536   1.265       .  A
C1526      O1527   1.277       .  A
C1526      C1984   1.470       .  S
O1527     Al1529   1.958       .  S
O1528      C1530   1.251       .  A
O1528     Al1529   1.860       .  S
Al1529     O1537   1.904       .  S
Al1529     O1539   1.945       .  S
Al1529     O1538   1.787       .  S
C1530      O1543   1.266       .  A
C1530      C1792   1.483       .  S
O1531      C1541   1.252       .  A
O1531     Al1533   1.901       .  S
O1532      C1545   1.265       .  A
O1532     Al1542   1.880       .  S
Al1533     O1546   1.962       .  S
Al1533     O1543   1.950       .  S
Al1533     O1538   1.789       .  S
O1534      C1541   1.255       .  A
O1534     Al1542   1.905       .  S
O1535      C1544   1.254       .  A
O1535     Al1542   1.907       .  S
O1536     Al1542   1.871       .  S
O1537      C1544   1.252       .  A
O1538     Al1542   1.793       .  S
O1539      C1540   1.266       .  A
C1540      C1808   1.481       .  S
C1541      C1971   1.473       .  S
C1544      C1776   1.476       .  S
C1545      O1546   1.277       .  A
C1545      C1760   1.469       .  S
O1547      C1562   1.251       .  A
O1547     Al1555   1.859       .  S
C1548      O1558   1.260       .  A
C1548      O1549   1.276       .  A
C1548      C2384   1.467       .  S
O1549     Al1551   1.971       .  S
O1550      C1552   1.252       .  A
O1550     Al1551   1.849       .  S
Al1551     O1559   1.899       .  S
Al1551     O1561   1.954       .  S
Al1551     O1560   1.784       .  S
C1552      O1565   1.269       .  A
C1552      C1744   1.476       .  S
O1553      C1563   1.253       .  A
O1553     Al1555   1.904       .  S
O1554      C1567   1.265       .  A
O1554     Al1564   1.874       .  S
Al1555     O1568   1.960       .  S
Al1555     O1565   1.951       .  S
Al1555     O1560   1.777       .  S
O1556      C1563   1.257       .  A
O1556     Al1564   1.912       .  S
O1557      C1566   1.261       .  A
O1557     Al1564   1.926       .  S
O1558     Al1564   1.866       .  S
O1559      C1566   1.256       .  A
O1560     Al1564   1.784       .  S
O1561      C1562   1.267       .  A
C1562      C1795   1.479       .  S
C1563      C2371   1.476       .  S
C1566      C2019   1.472       .  S
C1567      O1568   1.277       .  A
C1567      C2032   1.471       .  S
O1569      C1584   1.249       .  A
O1569     Al1577   1.848       .  S
C1570      O1571   1.277       .  A
C1570      C2483   1.474       .  S
O1572      C1574   1.254   1_554  A
O1572     Al1573   1.862       .  S
Al1573     O1583   1.966   1_554  S
Al1573     O1582   1.779   1_554  S
C1574      O1587   1.268       .  A
C1574      C1747   1.474       .  S
O1575      C1585   1.253       .  A
O1575     Al1577   1.890       .  S
O1576      C1589   1.265       .  A
O1576     Al1586   1.881       .  S
Al1577     O1590   1.946       .  S
Al1577     O1587   1.945       .  S
Al1577     O1582   1.777       .  S
O1578      C1585   1.259       .  A
O1578     Al1586   1.908       .  S
O1579     Al1586   1.926       .  S
O1580     Al1586   1.873       .  S
O1581      C1588   1.257       .  A
O1582     Al1586   1.780       .  S
O1583      C1584   1.270       .  A
C1584      C1811   1.478       .  S
C1585      C2464   1.465       .  S
C1588      C1731   1.472       .  S
C1589      O1590   1.273       .  A
C1589      C1712   1.468       .  S
O1591      C1606   1.277       .  A
O1591     Al1599   1.950       .  S
C1592      O1602   1.273       .  A
C1592      O1593   1.265       .  A
C1592      C1859   1.459       .  S
O1593     Al1595   1.881       .  S
O1594      C1596   1.247       .  A
O1594     Al1595   1.876       .  S
Al1595     O1603   1.887       .  S
Al1595     O1605   1.873       .  S
Al1595     O1604   1.783       .  S
C1596      O1609   1.255       .  A
C1596      C1843   1.476       .  S
O1597      C1607   1.268       .  A
O1597     Al1599   1.945       .  S
O1598      C1611   1.264       .  A
O1598     Al1608   1.934       .  S
Al1599     O1612   1.881       .  S
Al1599     O1609   1.926       .  S
Al1599     O1604   1.791       .  S
O1600      C1607   1.253       .  A
O1600     Al1608   1.858       .  S
O1601      C1610   1.259       .  A
O1601     Al1608   1.932       .  S
O1602     Al1608   1.950       .  S
O1603      C1610   1.252       .  A
O1604     Al1608   1.791       .  S
O1605      C1606   1.267       .  A
C1606      C1728   1.462       .  S
C1607      C1680   1.472       .  S
C1610      C1715   1.474       .  S
C1611      O1612   1.253       .  A
C1611      C1699   1.482       .  S
O1613      C1628   1.273       .  A
O1613     Al1621   1.949       .  S
C1614      O1624   1.272       .  A
C1614      C2259   1.465       .  S
O1615     Al1617   1.877       .  S
O1616      C1618   1.255       .  A
O1616     Al1617   1.903       .  S
Al1617     O1625   1.905       .  S
Al1617     O1627   1.875       .  S
Al1617     O1626   1.793       .  S
C1618      O1631   1.255       .  A
C1618      C2240   1.477       .  S
O1619      C1629   1.264       .  A
O1619     Al1621   1.932       .  S
O1620      C1633   1.266       .  A
O1620     Al1630   1.947       .  S
Al1621     O1634   1.873       .  S
Al1621     O1631   1.910       .  S
Al1621     O1626   1.792       .  S
O1622      C1629   1.254       .  A
O1622     Al1630   1.873       .  S
O1623      C1632   1.257       .  A
O1626     Al1630   1.793       .  S
O1627      C1628   1.263       .  A
C1628      C1779   1.464       .  S
C1629      C1664   1.478       .  S
C1632      C1763   1.480   1_554  S
C1633      O1634   1.255       .  A
C1633      C1696   1.487       .  S
O1635      C1650   1.272       .  A
O1635     Al1643   1.935       .  S
C1636      O1646   1.272       .  A
C1636      O1637   1.262       .  A
C1636      C1891   1.456       .  S
O1637     Al1639   1.873       .  S
O1638      C1640   1.251       .  A
O1638     Al1639   1.895       .  S
Al1639     O1647   1.908       .  S
Al1639     O1649   1.873       .  S
Al1639     O1648   1.793       .  S
C1640      O1653   1.254       .  A
C1640      C1875   1.474       .  S
O1641      C1651   1.266       .  A
O1641     Al1643   1.941       .  S
O1642      C1655   1.261       .  A
O1642     Al1652   1.926       .  S
Al1643     O1656   1.870       .  S
Al1643     O1653   1.905       .  S
Al1643     O1648   1.794       .  S
O1644      C1651   1.252       .  A
O1644     Al1652   1.856       .  S
O1645      C1654   1.254       .  A
O1645     Al1652   1.908       .  S
O1646     Al1652   1.940       .  S
O1647      C1654   1.254       .  A
O1648     Al1652   1.794       .  S
O1649      C1650   1.265       .  A
C1650      C2131   1.456       .  S
C1651      C1683   1.476       .  S
C1654      C2112   1.479       .  S
C1655      O1656   1.253       .  A
C1655      C1667   1.475       .  S
C1657      C1662   1.386       .  A
C1657      C1658   1.402       .  A
C1658      C1659   1.405       .  A
C1658      H1669   1.083   1_556  S
C1659      C1668   1.369       .  A
C1659      C1660   1.386       .  A
C1660      C1661   1.404       .  A
C1660      S1666   1.715       .  A
C1661      C1662   1.406       .  A
C1661      H1670   1.083       .  S
C1662      C1665   1.371       .  A
S1663      C1664   1.722       .  A
C1665      H1671   1.083       .  S
S1666      C1667   1.723       .  A
C1667      C1668   1.389       .  A
C1668      H1672   1.084       .  S
C1673      C1678   1.388       .  A
C1673      C1674   1.405       .  A
C1673      S1679   1.701       .  A
C1674      C1675   1.403       .  A
C1674      H1685   1.083       .  S
C1675      C1684   1.380       .  A
C1675      C1676   1.387       .  A
C1676      C1677   1.403       .  A
C1676      S1682   1.698       .  A
C1677      C1678   1.400       .  A
C1677      H1686   1.083       .  S
C1678      C1681   1.378       .  A
S1679      C1680   1.727       .  A
C1680      C1681   1.385       .  A
C1681      H1687   1.083       .  S
S1682      C1683   1.727       .  A
C1683      C1684   1.387       .  A
C1684      H1688   1.083       .  S
C1689      C1694   1.385       .  A
C1689      C1690   1.409       .  A
C1689      S1695   1.722       .  A
C1690      C1691   1.411       .  A
C1690      H1701   1.083       .  S
C1691      C1700   1.377       .  A
C1691      C1692   1.386       .  A
C1692      C1693   1.403       .  A
C1692      S1698   1.714       .  A
C1693      C1694   1.405       .  A
C1693      H1702   1.083       .  S
C1694      C1697   1.370       .  A
S1695      C1696   1.727       .  A
C1696      C1697   1.391       .  A
C1697      H1703   1.083       .  S
S1698      C1699   1.722       .  A
C1699      C1700   1.394       .  A
C1700      H1704   1.083       .  S
C1705      C1710   1.387       .  A
C1705      C1706   1.409       .  A
C1705      S1711   1.713       .  A
C1706      C1707   1.408       .  A
C1706      H1717   1.082       .  S
C1707      C1716   1.382       .  A
C1707      C1708   1.388       .  A
C1708      C1709   1.397       .  A
C1708      S1714   1.695       .  A
C1709      C1710   1.397       .  A
C1709      H1718   1.083       .  S
C1710      C1713   1.368       .  A
S1711      C1712   1.724       .  A
C1712      C1713   1.382       .  A
C1713      H1719   1.083       .  S
S1714      C1715   1.723       .  A
C1715      C1716   1.390       .  A
C1716      H1720   1.082       .  S
C1721      C1726   1.388       .  A
C1721      C1722   1.398       .  A
C1721      S1727   1.702       .  A
C1722      C1723   1.399       .  A
C1722      H1733   1.083       .  S
C1723      C1732   1.368       .  A
C1723      C1724   1.387       .  A
C1724      C1725   1.405       .  A
C1724      S1730   1.711       .  A
C1725      C1726   1.405       .  A
C1725      H1734   1.083       .  S
C1726      C1729   1.374       .  A
S1727      C1728   1.719       .  A
C1728      C1729   1.386       .  A
C1729      H1735   1.083       .  S
S1730      C1731   1.725       .  A
C1731      C1732   1.384       .  A
C1737      C1742   1.385       .  A
C1737      C1738   1.402       .  A
C1737      S1743   1.718       .  A
C1738      C1739   1.406       .  A
C1738      H1749   1.083       .  S
C1739      C1748   1.367       .  A
C1739      C1740   1.386       .  A
C1740      C1741   1.400       .  A
C1741      C1742   1.404       .  A
C1741      H1750   1.083       .  S
C1742      C1745   1.363       .  A
S1743      C1744   1.722       .  A
C1744      C1745   1.390       .  A
C1745      H1751   1.084       .  S
S1746      C1747   1.721       .  A
C1748      H1752   1.083       .  S
C1753      C1758   1.387       .  A
C1753      C1754   1.404       .  A
C1753      S1759   1.711       .  A
C1754      C1755   1.405       .  A
C1754      H1765   1.082       .  S
C1755      C1764   1.372       .  A
C1755      C1756   1.386       .  A
C1756      C1757   1.405       .  A
C1756      S1762   1.714       .  A
C1757      C1758   1.406       .  A
C1757      H1766   1.082       .  S
C1758      C1761   1.375       .  A
S1759      C1760   1.722       .  A
C1760      C1761   1.387       .  A
C1761      H1767   1.083       .  S
S1762      C1763   1.724       .  A
C1763      C1764   1.390       .  A
C1764      H1768   1.083       .  S
C1769      C1774   1.386       .  A
C1769      C1770   1.406       .  A
C1769      S1775   1.713       .  A
C1770      C1771   1.406       .  A
C1770      H1781   1.082       .  S
C1771      C1780   1.376       .  A
C1771      C1772   1.388       .  A
C1772      C1773   1.400       .  A
C1772      S1778   1.704       .  A
C1773      C1774   1.401       .  A
C1773      H1782   1.083       .  S
C1774      C1777   1.369       .  A
S1775      C1776   1.725       .  A
C1776      C1777   1.387       .  A
C1777      H1783   1.083       .  S
S1778      C1779   1.719       .  A
C1779      C1780   1.387       .  A
C1780      H1784   1.083       .  S
C1785      C1790   1.387       .  A
C1785      C1786   1.406       .  A
C1785      S1791   1.702       .  A
C1786      C1787   1.404       .  A
C1786      H1797   1.083       .  S
C1787      C1796   1.382       .  A
C1787      C1788   1.387       .  A
C1788      C1789   1.406       .  A
C1788      S1794   1.702       .  A
C1789      C1790   1.404       .  A
C1789      H1798   1.083       .  S
C1790      C1793   1.382       .  A
S1791      C1792   1.729       .  A
C1792      C1793   1.388       .  A
C1793      H1799   1.083       .  S
S1794      C1795   1.728       .  A
C1795      C1796   1.388       .  A
C1796      H1800   1.083       .  S
C1801      C1806   1.385       .  A
C1801      C1802   1.404       .  A
C1801      S1807   1.720       .  A
C1802      C1803   1.408       .  A
C1802      H1813   1.084       .  S
C1803      C1812   1.369       .  A
C1803      C1804   1.385       .  A
C1804      C1805   1.402       .  A
C1804      S1810   1.718       .  A
C1805      C1806   1.406       .  A
C1805      H1814   1.083       .  S
C1806      C1809   1.367       .  A
S1807      C1808   1.724       .  A
C1808      C1809   1.391       .  A
C1809      H1815   1.083       .  S
S1810      C1811   1.721       .  A
C1811      C1812   1.393       .  A
C1812      H1816   1.084       .  S
C1817      C1822   1.386       .  A
C1817      C1818   1.403   1_565  A
C1817      S1823   1.718       .  A
C1818      C1819   1.406       .  A
C1818      H1829   1.083       .  S
C1819      C1828   1.368       .  A
C1819      C1820   1.386       .  A
C1820      C1821   1.403   1_545  A
C1820      S1826   1.717       .  A
C1821      C1822   1.407       .  A
C1821      H1830   1.083       .  S
C1822      C1825   1.369       .  A
S1823      C1824   1.723       .  A
C1824      C1825   1.392       .  A
C1825      H1831   1.083       .  S
S1826      C1827   1.722       .  A
C1827      C1828   1.390       .  A
C1828      H1832   1.083       .  S
C1833      C1838   1.387       .  A
C1833      C1834   1.407       .  A
C1833      S1839   1.709       .  A
C1834      C1835   1.406       .  A
C1834      H1845   1.082       .  S
C1835      C1844   1.380       .  A
C1835      C1836   1.387       .  A
C1836      C1837   1.401       .  A
C1836      S1842   1.699       .  A
C1837      C1838   1.400       .  A
C1837      H1846   1.082       .  S
C1838      C1841   1.373       .  A
S1839      C1840   1.723       .  A
C1840      C1841   1.383       .  A
C1841      H1847   1.083       .  S
S1842      C1843   1.725       .  A
C1843      C1844   1.389       .  A
C1844      H1848   1.082       .  S
C1849      C1854   1.386       .  A
C1849      C1850   1.404       .  A
C1849      S1855   1.715       .  A
C1850      C1851   1.406       .  A
C1850      H1861   1.083       .  S
C1851      C1860   1.371       .  A
C1851      C1852   1.388       .  A
C1852      C1853   1.398       .  A
C1852      S1858   1.708       .  A
C1853      C1854   1.401       .  A
C1853      H1862   1.083       .  S
C1854      C1857   1.365       .  A
S1855      C1856   1.724       .  A
C1856      C1857   1.386       .  A
C1857      H1863   1.083       .  S
S1858      C1859   1.717       .  A
C1859      C1860   1.385       .  A
C1860      H1864   1.083       .  S
C1865      C1870   1.387       .  A
C1865      C1866   1.404       .  A
C1865      S1871   1.714       .  A
C1866      H1877   1.082       .  S
C1867      C1876   1.373       .  A
C1867      C1868   1.387       .  A
C1868      C1869   1.402   1_556  A
C1868      S1874   1.710       .  A
C1869      H1878   1.082       .  S
C1870      C1873   1.370       .  A
S1871      C1872   1.721       .  A
C1872      C1873   1.384       .  A
C1873      H1879   1.083       .  S
S1874      C1875   1.721       .  A
C1875      C1876   1.390       .  A
C1876      H1880   1.083       .  S
C1881      C1886   1.387       .  A
C1881      C1882   1.404       .  A
C1881      S1887   1.712       .  A
C1882      C1883   1.406       .  A
C1882      H1893   1.083       .  S
C1883      C1892   1.371       .  A
C1883      C1884   1.388       .  A
C1884      C1885   1.396       .  A
C1884      S1890   1.704       .  A
C1885      C1886   1.398       .  A
C1885      H1894   1.083       .  S
C1886      C1889   1.364       .  A
S1887      C1888   1.725       .  A
C1888      C1889   1.384       .  A
C1889      H1895   1.083       .  S
S1890      C1891   1.715       .  A
C1891      C1892   1.386       .  A
C1892      H1896   1.083       .  S
C1897      C1902   1.385       .  A
C1897      C1898   1.405       .  A
C1897      S1903   1.719       .  A
C1898      C1899   1.408       .  A
C1898      H1909   1.083       .  S
C1899      C1908   1.373       .  A
C1899      C1900   1.387       .  A
C1900      C1901   1.399       .  A
C1900      S1906   1.710       .  A
C1901      C1902   1.402       .  A
C1901      H1910   1.083       .  S
C1902      C1905   1.365       .  A
S1903      C1904   1.724       .  A
C1904      C1905   1.389       .  A
C1905      H1911   1.084       .  S
S1906      C1907   1.721       .  A
C1907      C1908   1.391       .  A
C1908      H1912   1.083       .  S
C1913      C1918   1.387       .  A
C1913      C1914   1.403       .  A
C1913      S1919   1.699       .  A
C1914      C1915   1.401       .  A
C1914      H1925   1.083       .  S
C1915      C1924   1.378       .  A
C1915      C1916   1.388       .  A
C1916      C1917   1.404       .  A
C1916      S1922   1.700       .  A
C1917      C1918   1.402       .  A
C1917      H1926   1.083       .  S
C1920      C1921   1.386   1_554  A
C1921      H1927   1.083       .  S
S1922      C1923   1.726       .  A
C1923      C1924   1.385       .  A
C1924      H1928   1.083       .  S
C1929      C1934   1.388       .  A
C1929      C1930   1.400       .  A
C1929      S1935   1.700       .  A
C1930      C1931   1.400       .  A
C1930      H1941   1.083       .  S
C1931      C1940   1.372       .  A
C1931      C1932   1.388       .  A
C1932      C1933   1.403       .  A
C1932      S1938   1.706       .  A
C1933      C1934   1.403       .  A
C1933      H1942   1.082       .  S
C1934      C1937   1.374       .  A
S1935      C1936   1.723       .  A
C1936      C1937   1.386       .  A
C1937      H1943   1.083       .  S
S1938      C1939   1.720       .  A
C1939      C1940   1.382       .  A
C1940      H1944   1.083       .  S
C1945      C1950   1.388       .  A
C1945      C1946   1.398       .  A
C1945      S1951   1.708       .  A
C1946      C1947   1.401       .  A
C1946      H1957   1.083       .  S
C1947      C1956   1.365       .  A
C1947      C1948   1.386       .  A
C1948      C1949   1.403       .  A
C1948      S1954   1.714       .  A
C1949      C1950   1.405       .  A
C1949      H1958   1.083       .  S
C1950      C1953   1.370       .  A
S1951      C1952   1.716       .  A
C1952      C1953   1.384       .  A
C1953      H1959   1.083       .  S
S1954      C1955   1.723       .  A
C1955      C1956   1.386       .  A
C1961      C1966   1.388       .  A
C1961      C1962   1.398       .  A
C1961      S1967   1.705       .  A
C1962      C1963   1.399       .  A
C1962      H1973   1.082       .  S
C1963      C1972   1.366       .  A
C1963      C1964   1.386       .  A
C1964      C1965   1.405       .  A
C1964      S1970   1.713       .  A
C1965      C1966   1.407       .  A
C1965      H1974   1.082       .  S
C1966      C1969   1.373       .  A
S1967      C1968   1.716       .  A
C1968      C1969   1.387       .  A
C1969      H1975   1.083       .  S
S1970      C1971   1.726       .  A
C1971      C1972   1.385       .  A
C1972      H1976   1.083       .  S
C1977      C1982   1.387       .  A
C1977      C1978   1.408       .  A
C1977      S1983   1.715       .  A
C1978      C1979   1.408       .  A
C1978      H1989   1.083       .  S
C1979      C1988   1.379       .  A
C1979      C1980   1.387       .  A
C1980      C1981   1.398       .  A
C1980      S1986   1.700       .  A
C1981      C1982   1.399       .  A
C1981      H1990   1.083       .  S
C1982      C1985   1.368       .  A
S1983      C1984   1.724       .  A
C1984      C1985   1.384       .  A
C1985      H1991   1.083       .  S
S1986      C1987   1.721       .  A
C1987      C1988   1.389       .  A
C1988      H1992   1.083       .  S
C1993      C1998   1.386       .  A
C1993      C1994   1.403       .  A
C1993      S1999   1.713       .  A
C1994      C1995   1.406       .  A
C1994      H2005   1.083       .  S
C1995      C2004   1.370       .  A
C1995      C1996   1.386       .  A
C1996      C1997   1.402       .  A
C1997      C1998   1.405       .  A
C1998      C2001   1.371       .  A
S1999      C2000   1.724       .  A
C2000      C2001   1.389       .  A
C2001      H2007   1.083       .  S
S2002      C2003   1.721       .  A
C2004      H2008   1.084       .  S
C2009      C2014   1.388       .  A
C2009      S2015   1.702   1_554  A
C2010      C2011   1.399       .  A
C2010      H2021   1.082       .  S
C2011      C2020   1.368       .  A
C2011      C2012   1.387       .  A
C2012      C2013   1.405       .  A
C2012      S2018   1.711       .  A
C2014      C2017   1.375   1_554  A
S2015      C2016   1.719       .  A
C2016      C2017   1.387       .  A
C2017      H2023   1.083       .  S
S2018      C2019   1.725       .  A
C2019      C2020   1.385       .  A
C2020      H2024   1.083       .  S
C2025      C2030   1.387       .  A
C2025      C2026   1.399       .  A
C2025      S2031   1.704       .  A
C2026      C2027   1.400       .  A
C2026      H2037   1.082       .  S
C2027      C2036   1.368       .  A
C2027      C2028   1.386       .  A
C2028      C2029   1.408       .  A
C2028      S2034   1.717       .  A
C2029      C2030   1.409       .  A
C2029      H2038   1.082       .  S
C2030      C2033   1.378       .  A
S2031      C2032   1.721       .  A
C2032      C2033   1.389       .  A
C2033      H2039   1.083       .  S
S2034      C2035   1.726       .  A
C2035      C2036   1.386       .  A
C2036      H2040   1.083       .  S
C2041      C2046   1.387       .  A
C2041      C2042   1.399       .  A
C2041      S2047   1.702       .  A
C2042      C2043   1.400       .  A
C2042      H2053   1.083       .  S
C2043      C2052   1.369       .  A
C2043      C2044   1.387       .  A
C2044      C2045   1.408       .  A
C2044      S2050   1.715       .  A
C2045      C2046   1.408       .  A
C2045      H2054   1.083       .  S
C2046      C2049   1.379       .  A
S2047      C2048   1.722       .  A
C2048      C2049   1.390       .  A
S2050      C2051   1.725       .  A
C2051      C2052   1.384       .  A
C2052      H2056   1.083       .  S
C2057      C2062   1.388       .  A
C2057      C2058   1.399       .  A
C2057      S2063   1.706       .  A
C2058      C2059   1.400       .  A
C2058      H2069   1.083       .  S
C2059      C2068   1.367       .  A
C2059      C2060   1.387       .  A
C2060      C2061   1.403       .  A
C2060      S2066   1.711       .  A
C2061      C2062   1.404       .  A
C2061      H2070   1.083       .  S
C2062      C2065   1.371       .  A
S2063      C2064   1.717       .  A
C2064      C2065   1.385       .  A
C2065      H2071   1.083       .  S
S2066      C2067   1.723       .  A
C2067      C2068   1.386       .  A
C2068      H2072   1.083       .  S
C2073      C2078   1.386       .  A
C2073      C2074   1.401       .  A
C2073      S2079   1.714       .  A
C2074      C2075   1.405       .  A
C2074      H2085   1.083       .  S
C2075      C2084   1.366       .  A
C2075      C2076   1.386       .  A
C2076      C2077   1.403       .  A
C2076      S2082   1.717       .  A
C2077      C2078   1.406       .  A
C2077      H2086   1.083       .  S
C2078      C2081   1.369       .  A
S2079      C2080   1.722       .  A
C2080      C2081   1.390       .  A
C2081      H2087   1.083       .  S
S2082      C2083   1.722       .  A
C2083      C2084   1.391       .  A
C2084      H2088   1.083       .  S
C2089      C2094   1.386       .  A
C2089      C2090   1.401   1_565  A
C2089      S2095   1.715       .  A
C2090      C2091   1.405       .  A
C2090      H2101   1.083       .  S
C2091      C2100   1.366       .  A
C2091      C2092   1.386       .  A
C2092      C2093   1.401   1_545  A
C2092      S2098   1.715       .  A
C2093      C2094   1.405       .  A
C2093      H2102   1.083       .  S
C2094      C2097   1.366       .  A
S2095      C2096   1.722       .  A
C2096      C2097   1.389       .  A
C2097      H2103   1.083       .  S
S2098      C2099   1.722       .  A
C2099      C2100   1.389       .  A
C2100      H2104   1.083       .  S
C2105      C2110   1.387       .  A
C2105      C2106   1.403       .  A
C2105      S2111   1.706       .  A
C2106      C2107   1.403       .  A
C2106      H2117   1.082       .  S
C2107      C2116   1.374       .  A
C2107      C2108   1.387       .  A
C2108      C2109   1.406       .  A
C2108      S2114   1.711       .  A
C2109      C2110   1.406       .  A
C2109      H2118   1.082       .  S
C2110      C2113   1.378       .  A
S2111      C2112   1.724       .  A
C2112      C2113   1.390       .  A
C2113      H2119   1.083       .  S
S2114      C2115   1.723       .  A
C2115      C2116   1.384       .  A
C2116      H2120   1.083       .  S
C2121      C2126   1.386       .  A
C2121      C2122   1.404       .  A
C2121      S2127   1.713       .  A
C2122      H2133   1.083       .  S
C2123      C2132   1.371   1_554  A
C2123      C2124   1.388       .  A
C2124      C2125   1.394       .  A
C2124      S2130   1.700   1_554  A
C2125      H2134   1.083       .  S
C2126      C2129   1.361       .  A
S2127      C2128   1.724       .  A
C2128      C2129   1.384       .  A
C2129      H2135   1.083       .  S
S2130      C2131   1.715       .  A
C2131      C2132   1.385       .  A
C2132      H2136   1.083       .  S
C2137      C2142   1.386       .  A
C2137      S2143   1.717       .  A
C2138      C2139   1.408       .  A
C2138      H2149   1.083       .  S
C2139      C2148   1.375       .  A
C2139      C2140   1.387       .  A
C2140      S2146   1.714       .  A
C2141      C2142   1.406       .  A
C2141      H2150   1.083       .  S
C2142      C2145   1.373       .  A
S2143      C2144   1.725       .  A
C2144      C2145   1.391       .  A
C2145      H2151   1.083       .  S
S2146      C2147   1.721       .  A
C2147      C2148   1.388       .  A
C2148      H2152   1.083       .  S
C2153      C2158   1.388       .  A
C2153      C2154   1.402       .  A
C2153      S2159   1.705       .  A
C2154      C2155   1.402       .  A
C2154      H2165   1.082       .  S
C2155      C2164   1.372       .  A
C2155      C2156   1.387       .  A
C2156      C2157   1.401       .  A
C2156      S2162   1.702       .  A
C2157      C2158   1.400       .  A
C2157      H2166   1.083       .  S
C2158      C2161   1.370       .  A
S2159      C2160   1.718       .  A
C2160      C2161   1.382       .  A
C2161      H2167   1.083       .  S
S2162      C2163   1.724       .  A
C2163      C2164   1.385       .  A
C2164      H2168   1.083       .  S
C2169      C2174   1.388       .  A
C2169      C2170   1.404       .  A
C2169      S2175   1.701       .  A
C2170      C2171   1.401       .  A
C2170      H2181   1.083       .  S
C2171      C2180   1.379       .  A
C2171      C2172   1.388       .  A
C2172      C2173   1.403       .  A
C2172      S2178   1.698       .  A
C2173      C2174   1.401       .  A
C2173      H2182   1.083       .  S
C2176      C2177   1.385       .  A
C2177      H2183   1.083       .  S
S2178      C2179   1.728       .  A
C2179      C2180   1.385       .  A
C2180      H2184   1.083       .  S
C2185      C2190   1.388       .  A
C2185      C2186   1.398       .  A
C2185      S2191   1.704       .  A
C2186      C2187   1.399       .  A
C2186      H2197   1.083       .  S
C2187      C2196   1.367       .  A
C2187      C2188   1.386       .  A
C2188      C2189   1.407       .  A
C2188      S2194   1.714       .  A
C2189      C2190   1.408       .  A
C2189      H2198   1.083       .  S
C2190      C2193   1.375       .  A
S2191      C2192   1.717       .  A
C2192      C2193   1.388       .  A
C2193      H2199   1.083       .  S
S2194      C2195   1.726       .  A
C2195      C2196   1.385       .  A
C2196      H2200   1.083       .  S
C2201      C2206   1.387       .  A
C2201      C2202   1.399       .  A
C2201      S2207   1.700       .  A
C2202      C2203   1.399       .  A
C2202      H2213   1.082       .  S
C2203      C2212   1.371       .  A
C2203      C2204   1.387       .  A
C2204      C2205   1.407       .  A
C2204      S2210   1.710       .  A
C2205      C2206   1.406       .  A
C2205      H2214   1.082       .  S
C2206      C2209   1.378       .  A
S2207      C2208   1.722       .  A
C2208      C2209   1.389       .  A
C2209      H2215   1.083       .  S
S2210      C2211   1.723       .  A
C2211      C2212   1.382       .  A
C2212      H2216   1.083       .  S
C2217      C2222   1.387       .  A
C2217      C2218   1.405       .  A
C2217      S2223   1.701       .  A
C2218      C2219   1.403       .  A
C2218      H2229   1.083       .  S
C2219      C2228   1.379       .  A
C2219      C2220   1.387       .  A
C2220      C2221   1.406       .  A
C2220      S2226   1.705       .  A
C2221      C2222   1.404       .  A
C2221      H2230   1.083       .  S
C2222      C2225   1.381       .  A
S2223      C2224   1.728       .  A
C2224      C2225   1.388       .  A
C2225      H2231   1.083       .  S
S2226      C2227   1.726       .  A
C2227      C2228   1.387       .  A
C2228      H2232   1.083       .  S
C2233      C2238   1.386       .  A
C2233      C2234   1.407       .  A
C2233      S2239   1.716       .  A
C2234      C2235   1.408       .  A
C2234      H2245   1.083       .  S
C2235      C2244   1.375       .  A
C2235      C2236   1.388       .  A
C2236      C2237   1.399       .  A
C2236      S2242   1.706       .  A
C2237      C2238   1.400       .  A
C2237      H2246   1.083       .  S
C2238      C2241   1.367       .  A
S2239      C2240   1.726       .  A
C2240      C2241   1.386       .  A
C2241      H2247   1.083       .  S
S2242      C2243   1.718       .  A
C2243      C2244   1.388       .  A
C2244      H2248   1.083       .  S
C2249      C2254   1.386       .  A
C2249      C2250   1.406       .  A
C2249      S2255   1.716       .  A
C2250      C2251   1.407       .  A
C2250      H2261   1.083       .  S
C2251      C2260   1.375       .  A
C2251      C2252   1.388       .  A
C2252      C2253   1.399       .  A
C2252      S2258   1.706       .  A
C2253      C2254   1.400       .  A
C2253      H2262   1.083       .  S
C2254      C2257   1.367       .  A
S2255      C2256   1.725       .  A
C2256      C2257   1.387       .  A
C2257      H2263   1.083       .  S
S2258      C2259   1.719       .  A
C2259      C2260   1.387       .  A
C2265      C2270   1.386       .  A
C2265      C2266   1.404   1_655  A
C2265      S2271   1.717       .  A
C2266      C2267   1.407       .  A
C2266      H2277   1.083       .  S
C2267      C2276   1.371       .  A
C2267      C2268   1.386       .  A
C2268      C2269   1.404   1_455  A
C2268      S2274   1.717       .  A
C2269      C2270   1.407       .  A
C2269      H2278   1.083       .  S
C2270      C2273   1.370       .  A
S2271      C2272   1.722       .  A
C2272      C2273   1.392       .  A
C2273      H2279   1.083       .  S
S2274      C2275   1.724       .  A
C2275      C2276   1.391       .  A
C2276      H2280   1.083       .  S
C2281      C2286   1.386       .  A
C2281      C2282   1.404       .  A
C2281      S2287   1.716       .  A
C2282      C2283   1.406       .  A
C2282      H2293   1.083       .  S
C2283      C2292   1.370       .  A
C2283      C2284   1.387       .  A
C2284      C2285   1.396       .  A
C2284      S2290   1.704       .  A
C2285      C2286   1.398       .  A
C2285      H2294   1.083       .  S
C2286      C2289   1.361       .  A
S2287      C2288   1.723       .  A
C2288      C2289   1.385       .  A
C2289      H2295   1.083       .  S
S2290      C2291   1.719       .  A
C2291      C2292   1.388       .  A
C2292      H2296   1.083       .  S
C2297      C2302   1.387       .  A
C2297      C2298   1.395       .  A
C2297      S2303   1.698       .  A
C2298      C2299   1.396       .  A
C2298      H2309   1.083       .  S
C2299      C2308   1.363       .  A
C2299      C2300   1.386       .  A
C2300      C2301   1.410       .  A
C2300      S2306   1.720       .  A
C2301      C2302   1.411       .  A
C2301      H2310   1.083       .  S
C2302      C2305   1.380       .  A
S2303      C2304   1.719       .  A
C2304      C2305   1.393       .  A
C2305      H2311   1.083       .  S
S2306      C2307   1.726       .  A
C2307      C2308   1.380       .  A
C2308      H2312   1.084       .  S
C2313      C2318   1.387       .  A
C2313      C2314   1.409       .  A
C2313      S2319   1.714       .  A
C2314      C2315   1.408       .  A
C2314      H2325   1.082       .  S
C2315      C2324   1.381       .  A
C2315      C2316   1.387       .  A
C2316      C2317   1.398       .  A
C2316      S2322   1.698       .  A
C2317      C2318   1.398       .  A
C2317      H2326   1.082       .  S
C2318      C2321   1.368       .  A
S2319      C2320   1.725       .  A
C2320      C2321   1.384       .  A
C2321      H2327   1.083       .  S
S2322      C2323   1.723       .  A
C2323      C2324   1.391       .  A
C2324      H2328   1.082       .  S
C2329      C2334   1.387       .  A
C2329      C2330   1.404       .  A
C2329      S2335   1.705       .  A
C2330      C2331   1.403       .  A
C2330      H2341   1.082       .  S
C2331      C2340   1.376       .  A
C2331      C2332   1.388       .  A
C2332      C2333   1.405       .  A
C2332      S2338   1.706       .  A
C2333      C2334   1.404       .  A
C2333      H2342   1.083       .  S
C2334      C2337   1.377       .  A
S2335      C2336   1.724       .  A
C2336      C2337   1.389       .  A
C2337      H2343   1.083       .  S
S2338      C2339   1.721       .  A
C2339      C2340   1.385       .  A
C2340      H2344   1.082       .  S
C2345      C2350   1.387       .  A
C2345      C2346   1.401       .  A
C2345      S2351   1.713   1_556  A
C2346      C2347   1.404       .  A
C2346      H2357   1.084   1_556  S
C2347      C2356   1.367       .  A
C2347      C2348   1.387       .  A
C2348      C2349   1.398       .  A
C2348      S2354   1.710       .  A
C2349      C2350   1.402       .  A
C2349      H2358   1.084       .  S
C2352      C2353   1.385       .  A
C2353      H2359   1.084       .  S
S2354      C2355   1.718       .  A
C2355      C2356   1.387       .  A
C2356      H2360   1.084       .  S
C2361      C2366   1.388       .  A
C2361      C2362   1.396       .  A
C2361      S2367   1.698       .  A
C2362      C2363   1.397       .  A
C2362      H2373   1.083       .  S
C2363      C2372   1.367       .  A
C2363      C2364   1.386       .  A
C2364      C2365   1.409       .  A
C2364      S2370   1.715       .  A
C2365      C2366   1.410       .  A
C2365      H2374   1.083       .  S
C2366      C2369   1.380       .  A
S2367      C2368   1.719       .  A
C2368      C2369   1.390       .  A
C2369      H2375   1.083       .  S
S2370      C2371   1.728       .  A
C2371      C2372   1.384       .  A
C2372      H2376   1.083       .  S
C2377      C2382   1.388       .  A
C2377      C2378   1.398       .  A
C2377      S2383   1.699       .  A
C2378      H2389   1.083       .  S
C2379      C2388   1.369       .  A
C2379      C2380   1.386       .  A
C2380      C2381   1.408       .  A
C2380      S2386   1.714       .  A
C2381      H2390   1.082       .  S
C2382      C2385   1.380       .  A
S2383      C2384   1.720       .  A
C2384      C2385   1.388       .  A
S2386      C2387   1.727       .  A
C2387      C2388   1.385       .  A
C2388      H2392   1.083       .  S
C2393      C2394   1.399       .  A
C2394      C2395   1.400       .  A
C2394      H2405   1.083       .  S
C2395      C2404   1.366       .  A
C2395      C2396   1.387       .  A
C2396      S2402   1.712       .  A
C2397      C2398   1.404       .  A
C2397      H2406   1.083       .  S
C2398      C2401   1.371   1_554  A
S2399      C2400   1.722       .  A
C2400      C2401   1.387       .  A
C2401      H2407   1.083       .  S
S2402      C2403   1.722       .  A
C2403      C2404   1.385       .  A
C2404      H2408   1.084       .  S
C2409      C2414   1.386       .  A
C2409      C2410   1.409       .  A
C2409      S2415   1.720       .  A
C2410      C2411   1.410       .  A
C2410      H2421   1.082       .  S
C2411      C2420   1.379       .  A
C2411      C2412   1.387       .  A
C2412      C2413   1.399       .  A
C2412      S2418   1.704       .  A
C2413      C2414   1.400       .  A
C2413      H2422   1.083       .  S
C2414      C2417   1.367       .  A
S2415      C2416   1.724       .  A
C2416      C2417   1.384       .  A
C2417      H2423   1.083       .  S
S2418      C2419   1.722       .  A
C2419      C2420   1.392       .  A
C2420      H2424   1.083       .  S
C2425      C2430   1.387       .  A
C2425      C2426   1.401   1_655  A
C2425      S2431   1.714       .  A
C2426      C2427   1.405       .  A
C2426      H2437   1.083       .  S
C2427      C2436   1.366       .  A
C2427      C2428   1.386       .  A
C2428      C2429   1.403       .  A
C2428      S2434   1.719       .  A
C2429      C2430   1.406   1_455  A
C2429      H2438   1.082       .  S
C2430      C2433   1.369       .  A
S2431      C2432   1.719       .  A
C2432      C2433   1.388       .  A
C2433      H2439   1.083       .  S
S2434      C2435   1.721       .  A
C2435      C2436   1.391       .  A
C2436      H2440   1.084       .  S
C2441      C2446   1.386       .  A
C2441      C2442   1.405       .  A
C2441      S2447   1.720       .  A
C2442      C2443   1.408       .  A
C2442      H2453   1.082       .  S
C2443      C2452   1.371       .  A
C2443      C2444   1.386       .  A
C2444      C2445   1.404       .  A
C2444      S2450   1.719       .  A
C2445      C2446   1.408       .  A
C2445      H2454   1.082       .  S
C2446      C2449   1.370       .  A
S2447      C2448   1.722       .  A
C2448      C2449   1.391       .  A
C2449      H2455   1.083       .  S
S2450      C2451   1.723       .  A
C2451      C2452   1.391       .  A
C2452      H2456   1.083       .  S
C2457      C2462   1.387       .  A
C2457      C2458   1.405       .  A
C2457      S2463   1.710       .  A
C2458      C2459   1.406       .  A
C2458      H2469   1.083       .  S
C2459      C2468   1.374       .  A
C2459      C2460   1.388       .  A
C2460      C2461   1.393       .  A
C2460      S2466   1.693       .  A
C2461      C2462   1.394       .  A
C2461      H2470   1.083       .  S
C2462      C2465   1.362       .  A
S2463      C2464   1.725       .  A
C2464      C2465   1.381       .  A
C2465      H2471   1.083       .  S
S2466      C2467   1.719       .  A
C2467      C2468   1.388       .  A
C2468      H2472   1.083       .  S
C2473      C2478   1.386       .  A
C2473      C2474   1.402       .  A
C2473      S2479   1.715       .  A
C2474      C2475   1.405       .  A
C2474      H2485   1.083       .  S
C2475      C2484   1.369       .  A
C2475      C2476   1.386       .  A
C2476      C2477   1.406       .  A
C2476      S2482   1.719       .  A
C2477      C2478   1.408       .  A
C2477      H2486   1.083       .  S
C2478      C2481   1.372       .  A
S2479      C2480   1.722       .  A
C2480      C2481   1.391       .  A
C2481      H2487   1.083       .  S
S2482      C2483   1.723       .  A
C2483      C2484   1.388       .  A
C2484      H2488   1.083       .  S
C2489      C2494   1.387       .  A
C2489      C2490   1.402       .  A
C2489      S2495   1.707       .  A
C2490      C2491   1.402       .  A
C2490      H2501   1.082       .  S
C2491      C2500   1.373       .  A
C2491      C2492   1.387       .  A
C2492      C2493   1.401       .  A
C2492      S2498   1.703       .  A
C2493      C2494   1.401       .  A
C2493      H2502   1.082       .  S
C2494      C2497   1.370       .  A
S2495      C2496   1.722       .  A
C2496      C2497   1.387       .  A
C2497      H2503   1.083       .  S
S2498      C2499   1.724       .  A
C2499      C2500   1.385       .  A
C2500      H2504   1.082       .  S
C2505      C2510   1.386       .  A
C2505      C2506   1.401       .  A
C2505      S2511   1.711       .  A
C2506      C2507   1.403       .  A
C2506      H2517   1.082       .  S
C2507      C2516   1.367       .  A
C2507      C2508   1.387       .  A
C2508      C2509   1.403       .  A
C2508      S2514   1.715       .  A
C2509      C2510   1.406       .  A
C2509      H2518   1.082       .  S
C2510      C2513   1.371       .  A
S2511      C2512   1.722       .  A
C2512      C2513   1.389       .  A
C2513      H2519   1.083       .  S
S2514      C2515   1.720       .  A
C2515      C2516   1.385       .  A
C2516      H2520   1.083       .  S
