geometry optimzed in LAMMPS
_audit_creation_date              2020-12-01 
_audit_creation_method            'lammps2cif' 
_symmetry_space_group_name_H-M    'P1' 
_symmetry_Int_Tables_number       1 
_symmetry_cell_setting            triclinic 
loop_ 
_symmetry_equiv_pos_as_xyz 
  x,y,z 
_cell_length_a                    31.95394856 
_cell_length_b                    31.836047527980693 
_cell_length_c                    31.69655925992839 
_cell_angle_alpha                 89.08313807112135 
_cell_angle_beta                  89.86435174299646 
_cell_angle_gamma                 90.51446415014871 
loop_ 
_atom_site_label 
_atom_site_type_symbol 
_atom_site_fract_x 
_atom_site_fract_y 
_atom_site_fract_z 
_atom_site_charge 
C1          C  0.71032546  0.02566175  0.01781893     0.85700
C2          C  0.70722036  0.03373269  0.96972751    -0.54600
C3          C  0.73323806  0.00974074  0.94555171     0.08600
C4          C  0.76175125  0.98129676  0.97016737     0.19500
C5          C  0.70681019  0.97674918  0.02302083    -0.55300
C6          C  0.73476513  0.95422634  0.99820477     0.08700
C7          C  0.75760618  0.03354270  0.02543112    -0.54800
C8          C  0.78365954  0.00978490  0.00056366     0.09300
H9          H  0.68879826  0.05862920  0.95571495     0.13800
H10         H  0.78319785  0.96301796  0.94999851    -0.00500
H11         H  0.68606860  0.96172701  0.04596455     0.14100
H12         H  0.76948855  0.05517726  0.04875636     0.13900
C13         C  0.71405147  0.75569306  0.73398575     0.85700
C14         C  0.70722270  0.75082281  0.78211073    -0.54600
C15         C  0.73488888  0.77342431  0.80645024     0.08600
C16         C  0.76630902  0.79939214  0.78180610     0.19500
C17         C  0.71511822  0.80416863  0.72577993    -0.55300
C18         C  0.74224918  0.82634821  0.75139031     0.08700
C19         C  0.76115179  0.74509232  0.72854800    -0.54800
C20         C  0.78786254  0.76859113  0.75361160     0.09300
H21         H  0.68413258  0.72928909  0.79567139     0.13800
H22         H  0.78794582  0.81774042  0.80196638    -0.00500
H23         H  0.69876928  0.81958674  0.70011609     0.14100
H24         H  0.77234003  0.72302366  0.70541795     0.13900
C25         C  0.98589402  0.02974763  0.74425392     0.85700
C26         C  0.98174641  0.98485959  0.72646154    -0.54600
C27         C  0.95762766  0.95748997  0.75079634     0.08600
C28         C  0.93859316  0.97645260  0.78956057     0.19500
C29         C  0.93928157  0.04236036  0.75007083    -0.55300
C30         C  0.91518322  0.01413720  0.77340688     0.08700
C31         C  0.00009727  0.02191573  0.79071232    -0.54800
C32         C  0.97524955  0.99373898  0.81371921     0.09300
H33         H  0.99750381  0.97521088  0.69790413     0.13800
H34         H  0.91871354  0.95429768  0.80842110    -0.00500
H35         H  0.92513097  0.06974952  0.73580683     0.14100
H36         H  0.02607809  0.03879598  0.80473681     0.13900
C37         C  0.21110425  0.25559405  0.74314187     0.85700
C38         C  0.25747877  0.24118073  0.74839706    -0.54600
C39         C  0.28291412  0.26843566  0.77029875     0.08600
C40         C  0.26100812  0.30664461  0.78614825     0.19500
C41         C  0.19760824  0.26441332  0.78974600    -0.55300
C42         C  0.22398529  0.29149248  0.81170307     0.08700
C43         C  0.21719578  0.30029191  0.72364470    -0.54800
C44         C  0.24318410  0.32635518  0.74650065     0.09300
H45         H  0.27133980  0.21535348  0.73187661     0.13800
H46         H  0.28196227  0.32777825  0.80417075    -0.00500
H47         H  0.17063278  0.24923982  0.80444485     0.14100
H48         H  0.20214015  0.31049415  0.69464491     0.13900
Zr49       Zr  0.42613473  0.31151108  0.80349433     2.17500
O50         O  0.37778465  0.34237093  0.85170794    -0.52200
O51         O  0.44115404  0.38799254  0.78736261    -0.75400
O52         O  0.45156119  0.30413343  0.87758250    -0.82100
O53         O  0.34290337  0.25228046  0.73246986    -0.83900
O54         O  0.51532090  0.27338591  0.88346034    -0.79500
O55         O  0.35096019  0.29395221  0.78964479    -0.91100
O56         O  0.50642866  0.39124201  0.76132859    -0.77100
O57         O  0.49680417  0.32690699  0.78764743    -0.86600
O58         O  0.42769446  0.32222980  0.72866097    -0.86300
O59         O  0.46192626  0.24892543  0.82530001    -0.73000
O60         O  0.40511450  0.24748573  0.77178939    -0.85200
Zr61       Zr  0.52126273  0.21368266  0.70684868     2.26400
Zr62       Zr  0.53361932  0.26656787  0.81132858     2.06300
Zr63       Zr  0.40901487  0.25618711  0.69806148     2.10000
Zr64       Zr  0.49935681  0.33681719  0.71265402     1.78800
O65         O  0.37065725  0.19811925  0.66667197    -0.94000
O66         O  0.56774802  0.37017378  0.70208098    -0.41800
O67         O  0.48037450  0.27170542  0.68424948    -0.78400
O68         O  0.53947512  0.27989473  0.73661629    -0.97100
O69         O  0.51360085  0.20185733  0.78055844    -0.90400
O70         O  0.44892641  0.19616214  0.71850959    -0.93300
C71         C  0.47371220  0.40907312  0.77374322     1.00500
C72         C  0.32846688  0.27119230  0.76441104     1.13400
C73         C  0.48189733  0.28775303  0.89934312     1.04200
O74         O  0.57093810  0.32413657  0.84478208    -0.95400
O75         O  0.60310201  0.26556171  0.78758544    -0.91200
O76         O  0.59668095  0.22777735  0.72747216    -0.84300
C77         C  0.61840901  0.24876919  0.75509782     1.10800
O78         O  0.37613551  0.18034632  0.83303381    -0.97400
Zr79       Zr  0.44097269  0.18672071  0.79289806     1.88900
O80         O  0.50693178  0.13818731  0.72299736    -0.74000
O81         O  0.57236917  0.20961297  0.84478380    -0.53300
O82         O  0.45003678  0.15755825  0.86391494    -0.98000
O83         O  0.39314308  0.13474407  0.76326058    -0.55200
O84         O  0.48903539  0.13208409  0.79135864    -0.74600
C85         C  0.49658912  0.11613089  0.75616335     0.97800
O86         O  0.56979874  0.17894740  0.66093451    -0.63400
O87         O  0.36771506  0.30678932  0.65782890    -0.58200
O88         O  0.49758152  0.22851308  0.63216971    -0.94900
O89         O  0.43026788  0.25132114  0.62682637    -0.93300
O90         O  0.45628962  0.38721077  0.67404802    -0.93600
O91         O  0.52573647  0.33987364  0.64042562    -0.92400
C92         C  0.46528760  0.24181540  0.61064136     1.16600
H93         H  0.40900152  0.34452465  0.72037062     0.32600
H94         H  0.56543125  0.29172848  0.72648339     0.43400
H95         H  0.44036625  0.17203870  0.70248750     0.37000
H96         H  0.45502848  0.23800544  0.85292652     0.33400
H97         H  0.56183932  0.40039090  0.69762265     0.25200
H98         H  0.58893022  0.22328277  0.86716967     0.31200
H99         H  0.44052550  0.12794177  0.86213438     0.37100
H100        H  0.47237663  0.41388467  0.67479932     0.31500
H101        H  0.34778694  0.28947929  0.64154778     0.30400
H102        H  0.34757648  0.21149080  0.65076655     0.32100
H103        H  0.40962163  0.11802697  0.74321809     0.31100
H104        H  0.50225888  0.32971811  0.62285356     0.35100
H105        H  0.59178443  0.20024038  0.65463366     0.27800
H106        H  0.39592055  0.35886304  0.87059271     0.32000
H107        H  0.37403686  0.20729191  0.84804312     0.34900
H108        H  0.35001679  0.32087597  0.67891971     0.27500
H109        H  0.58320918  0.15855117  0.68033071     0.40400
H110        H  0.57453531  0.34571889  0.82218503     0.30400
H111        H  0.58157881  0.36859990  0.72999128     0.38000
H112        H  0.37371830  0.15121090  0.74535070     0.29900
H113        H  0.55092471  0.19276762  0.86023363     0.29900
H114        H  0.36856433  0.31794940  0.86926155     0.30200
C115        C  0.48667401  0.52465757  0.73337144     0.85700
C116        C  0.48163797  0.54131619  0.77880853    -0.54600
C117        C  0.45498480  0.51777396  0.80399477     0.08600
C118        C  0.43614774  0.47982853  0.78327313     0.19500
C119        C  0.50005308  0.47827136  0.74215561    -0.55300
C120        C  0.47249705  0.45511903  0.76724871     0.08700
C121        C  0.44058740  0.52047638  0.71792662    -0.54800
C122        C  0.41472250  0.49713321  0.74482729     0.09300
H123        H  0.49902954  0.56800315  0.79079048     0.13800
H124        H  0.41511444  0.46095608  0.80427727    -0.00500
H125        H  0.52828945  0.46456585  0.72975178     0.14100
H126        H  0.42916077  0.53649906  0.68980563     0.13900
C127        C  0.49236898  0.26528415  0.01897498     0.85700
C128        C  0.49267841  0.31466475  0.02141115    -0.54600
C129        C  0.46604172  0.33477286  0.99303240     0.08600
C130        C  0.44179102  0.30602307  0.96595470     0.19500
C131        C  0.44504265  0.25508892  0.02361233    -0.55300
C132        C  0.41927909  0.27712643  0.99627415     0.08700
C133        C  0.50139327  0.25894311  0.97147659    -0.54800
C134        C  0.47560616  0.28138236  0.94464974     0.09300
H135        H  0.51297146  0.33357003  0.04030365     0.13800
H136        H  0.42067668  0.32314710  0.94398618    -0.00500
H137        H  0.43290748  0.23496443  0.04886884     0.14100
H138        H  0.52765266  0.24075217  0.96029818     0.13900
Zr139      Zr  0.77708296  0.81142617  0.95009625     2.17500
O140        O  0.82772498  0.85017084  0.90868988    -0.52200
O141        O  0.85222820  0.79329958  0.96486775    -0.75400
O142        O  0.76343570  0.88797018  0.97230354    -0.82100
O143        O  0.72688015  0.73214892  0.86696402    -0.83900
O144        O  0.72889569  0.89123963  0.03527260    -0.79500
O145        O  0.75851909  0.79615074  0.87445484    -0.91100
O146        O  0.86082492  0.72849791  0.99391608    -0.77100
O147        O  0.78841953  0.79857049  0.02294608    -0.86600
O148        O  0.78792279  0.73732254  0.95712470    -0.86300
O149        O  0.71197061  0.83044795  0.98180747    -0.73000
O150        O  0.71664207  0.77424300  0.92747527    -0.85200
Zr151      Zr  0.67420792  0.71403183  0.04584612     2.26400
Zr152      Zr  0.72471890  0.81990422  0.05543828     2.06300
Zr153      Zr  0.72610427  0.70130431  0.93598203     2.10000
Zr154      Zr  0.79785428  0.72422794  0.03087464     1.78800
O155        O  0.67300562  0.66580867  0.89410130    -0.94000
O156        O  0.84645909  0.75492421  0.08125137    -0.41800
O157        O  0.73523085  0.69261241  0.00955696    -0.78400
O158        O  0.73826688  0.74699961  0.06705848    -0.97100
O159        O  0.66181679  0.78617109  0.03264856    -0.90400
O160        O  0.66323883  0.72053011  0.97129698    -0.93300
C161        C  0.87525913  0.76222623  0.97809282     1.00500
C162        C  0.74061443  0.76705492  0.85199741     1.13400
C163        C  0.74388833  0.90855055  0.00222301     1.04200
O164        O  0.78344927  0.85301197  0.09127570    -0.95400
O165        O  0.71611551  0.80034444  0.12695062    -0.91200
O166        O  0.68313634  0.73671254  0.12280378    -0.84300
C167        C  0.70074347  0.76731951  0.14399843     1.10800
O168        O  0.64544744  0.85431100  0.91043555    -0.97400
Zr169      Zr  0.65304560  0.79366793  0.95786612     1.88900
O170        O  0.59843232  0.73011262  0.03148321    -0.74000
O171        O  0.66823255  0.85707266  0.09009169    -0.53300
O172        O  0.60792846  0.84618402  0.98920658    -0.98000
O173        O  0.63312964  0.77663177  0.88584309    -0.55200
O174        O  0.58923881  0.75868323  0.96623431    -0.74600
C175        C  0.57514648  0.74433191  0.00079976     0.97800
O176        O  0.64211348  0.66021233  0.08838806    -0.63400
O177        O  0.78077937  0.66193286  0.90056143    -0.58200
O178        O  0.69084735  0.63949563  0.02739108    -0.94900
O179        O  0.72512420  0.63187495  0.96489263    -0.93300
O180        O  0.81361408  0.65053846  0.01936518    -0.93600
O181        O  0.80829142  0.68162410  0.09444294    -0.92400
C182        C  0.70938078  0.61699842  0.99898225     1.16600
H183        H  0.81020060  0.72819413  0.93902982     0.32600
H184        H  0.74853822  0.73938202  0.09453535     0.43400
H185        H  0.64055745  0.70268513  0.96200825     0.37000
H186        H  0.70029335  0.85686815  0.97319142     0.33400
H187        H  0.87122058  0.73643944  0.08094030     0.25200
H188        H  0.68202711  0.88077274  0.10459334     0.31200
H189        H  0.58020396  0.84217018  0.97590809     0.37100
H190        H  0.81751965  0.64842411  0.98848160     0.31500
H191        H  0.76618999  0.63736971  0.88843839     0.30400
H192        H  0.68594780  0.63900343  0.88587177     0.32100
H193        H  0.60216972  0.77757765  0.88544780     0.31100
H194        H  0.78177231  0.66562027  0.09808152     0.35100
H195        H  0.66601477  0.65153550  0.10618570     0.27800
H196        H  0.82193814  0.87928534  0.91682036     0.32000
H197        H  0.61498615  0.85740800  0.90580406     0.34900
H198        H  0.78907422  0.67938408  0.87574233     0.27500
H199        H  0.62367973  0.67647501  0.10690988     0.40400
H200        H  0.79727547  0.82977066  0.10682650     0.30400
H201        H  0.85644703  0.78146910  0.06782835     0.38000
H202        H  0.63974476  0.74648705  0.88308723     0.29900
H203        H  0.65228122  0.87043854  0.06681679     0.29900
H204        H  0.81723149  0.84738910  0.87963264     0.30200
C205        C  0.84811354  0.39085215  0.87958828    -0.03300
C206        C  0.96076362  0.50303528  0.76119042     0.85700
C207        C  0.00659092  0.48820508  0.75365897    -0.54600
C208        C  0.02988610  0.51400706  0.72653607     0.08600
C209        C  0.00661091  0.55130002  0.70970777     0.19500
C210        C  0.96861605  0.54906302  0.77603478    -0.55300
C211        C  0.99245770  0.57335935  0.74870739     0.08700
C212        C  0.94311752  0.50923225  0.71585057    -0.54800
C213        C  0.96753513  0.53443401  0.68950374     0.09300
H214        H  0.02067787  0.46279298  0.77162933     0.13800
H215        H  0.02576270  0.57142964  0.68801776    -0.00500
H216        H  0.95796397  0.56177569  0.80556780     0.14100
H217        H  0.91445351  0.49415467  0.70537943     0.13900
C218        C  0.73085236  0.49768431  0.99150321     0.85700
C219        C  0.73843368  0.54520999  0.98295511    -0.54600
C220        C  0.71295928  0.57142430  0.00573053     0.08600
C221        C  0.68283398  0.54918325  0.03536187     0.19500
C222        C  0.73390458  0.49356475  0.04070525    -0.55300
C223        C  0.70795626  0.52029258  0.06282124     0.08700
C224        C  0.68317576  0.49215208  0.98512055    -0.54800
C225        C  0.65884832  0.51950572  0.00803440     0.09300
H226        H  0.76095468  0.55696371  0.95984385     0.13800
H227        H  0.66262013  0.57057022  0.05362093    -0.00500
H228        H  0.75163263  0.46962320  0.05713585     0.14100
H229        H  0.66975496  0.46701343  0.96669397     0.13900
C230        C  0.21081195  0.03298281  0.51469523     0.85700
C231        C  0.25702008  0.02935429  0.52988692    -0.54600
C232        C  0.28255183  0.00606665  0.50382105     0.08600
C233        C  0.26096438  0.98814809  0.46633512     0.19500
C234        C  0.21502184  0.04825185  0.46811241    -0.55300
C235        C  0.24106437  0.02398602  0.44354163     0.08700
C236        C  0.19797017  0.98575150  0.50916672    -0.54800
C237        C  0.22483453  0.96348252  0.48380229     0.09300
H238        H  0.26834840  0.04346251  0.55866948     0.13800
H239        H  0.28196145  0.96953775  0.44605528    -0.00500
H240        H  0.19651116  0.07375342  0.45509200     0.14100
H241        H  0.17129342  0.97033936  0.52378935     0.13900
C242        C  0.09783879  0.14385070  0.62781601    -0.03300
C243        C  0.99163816  0.75845010  0.00986757     0.85700
C244        C  0.94680943  0.74068165  0.00299108    -0.54600
C245        C  0.92106084  0.76621458  0.97884592     0.08600
C246        C  0.94173178  0.80597806  0.96260764     0.19500
C247        C  0.00735391  0.76797049  0.96415952    -0.55300
C248        C  0.98078195  0.79285149  0.93997503     0.08700
C249        C  0.98200553  0.80275913  0.02742862    -0.54800
C250        C  0.95692772  0.82728792  0.00161976     0.09300
H251        H  0.93515060  0.71274560  0.01936541     0.13800
H252        H  0.92077370  0.82582264  0.94288960    -0.00500
H253        H  0.03590877  0.75467442  0.95170423     0.14100
H254        H  0.99458485  0.81419801  0.05686976     0.13900
C255        C  0.20850951  0.53718006  0.00741758     0.85700
C256        C  0.19604892  0.53546585  0.95984132    -0.54600
C257        C  0.22224756  0.51105934  0.93514896     0.08600
C258        C  0.25704301  0.49064754  0.95882547     0.19500
C259        C  0.21222655  0.48983880  0.02026215    -0.55300
C260        C  0.23719354  0.46646064  0.99439503     0.08700
C261        C  0.25518293  0.55089900  0.00532905    -0.54800
C262        C  0.27957875  0.52682148  0.97902547     0.09300
H263        H  0.17113832  0.55434246  0.94646317     0.13800
H264        H  0.27739271  0.47095016  0.93885196    -0.00500
H265        H  0.19817924  0.47518033  0.04783851     0.14100
H266        H  0.26811715  0.57614872  0.02396893     0.13900
C267        C  0.21145040  0.75895179  0.24175593     0.85700
C268        C  0.22602479  0.80219459  0.22268971    -0.54600
C269        C  0.25138953  0.82596893  0.24887703     0.08600
C270        C  0.26039203  0.80492214  0.29067762     0.19500
C271        C  0.25288938  0.73782112  0.25589641    -0.55300
C272        C  0.27827912  0.76245717  0.28067514     0.08700
C273        C  0.19217924  0.77149478  0.28530940    -0.54800
C274        C  0.21849618  0.79552263  0.31043738     0.09300
H275        H  0.21453127  0.81404316  0.19262009     0.13800
H276        H  0.28098803  0.82423686  0.31091661    -0.00500
H277        H  0.26243531  0.70713198  0.24525726     0.14100
H278        H  0.16248049  0.75931613  0.29697807     0.13900
C279        C  0.09927586  0.64442101  0.12852567    -0.03300
C280        C  0.47934882  0.75491792  0.51861246     0.85700
C281        C  0.43390652  0.76171652  0.53557292    -0.54600
C282        C  0.40911973  0.78621649  0.50927782     0.08600
C283        C  0.43113601  0.80336726  0.47101646     0.19500
C284        C  0.47237934  0.73969447  0.47302531    -0.55300
C285        C  0.44729727  0.76554835  0.44888242     0.08700
C286        C  0.49495685  0.80123922  0.51217273    -0.54800
C287        C  0.46901449  0.82596489  0.48736305     0.09300
H288        H  0.42212935  0.74800300  0.56484445     0.13800
H289        H  0.41099235  0.82364467  0.45089945    -0.00500
H290        H  0.48735465  0.71200987  0.46062467     0.14100
H291        H  0.52219063  0.81403192  0.52800421     0.13900
Zr292      Zr  0.26940935  0.82383773  0.45355124     2.17500
O293        O  0.32358954  0.85141601  0.40791279    -0.52200
O294        O  0.25609337  0.89876689  0.46574000    -0.75400
O295        O  0.24514571  0.81644402  0.37819186    -0.82100
O296        O  0.34852241  0.78411703  0.54944430    -0.83900
O297        O  0.17934837  0.78895598  0.37230699    -0.79500
O298        O  0.34207476  0.80631788  0.48121611    -0.91100
O299        O  0.18764492  0.90064625  0.47991455    -0.77100
O300        O  0.19659314  0.83533263  0.46219181    -0.86600
O301        O  0.25894250  0.84114421  0.52619294    -0.86300
O302        O  0.23610243  0.75944600  0.43335741    -0.73000
O303        O  0.29036372  0.76527544  0.49455323    -0.85200
Zr304      Zr  0.17179568  0.72493343  0.55259515     2.26400
Zr305      Zr  0.16287447  0.77158911  0.44325438     2.06300
Zr306      Zr  0.27745513  0.78042610  0.56660219     2.10000
Zr307      Zr  0.18553164  0.85065295  0.53487710     1.78800
O308        O  0.31365679  0.72726159  0.60857892    -0.94000
O309        O  0.11529254  0.87979423  0.52955520    -0.41800
O310        O  0.20457747  0.78935454  0.57246362    -0.78400
O311        O  0.15161740  0.78821542  0.51582403    -0.97100
O312        O  0.18476444  0.70985242  0.48063540    -0.90400
O313        O  0.24545986  0.71545652  0.54757318    -0.93300
C314        C  0.22242033  0.91883110  0.47486613     1.00500
C315        C  0.36404268  0.79356904  0.51381783     1.13400
C316        C  0.21339666  0.80249097  0.35630203     1.04200
O317        O  0.11647071  0.81955582  0.40573289    -0.95400
O318        O  0.09177906  0.76452264  0.46294010    -0.91200
O319        O  0.09697266  0.73295171  0.52770583    -0.84300
C320        C  0.07564113  0.74986252  0.49675113     1.10800
O321        O  0.30031055  0.69053905  0.41071565    -0.97400
Zr322      Zr  0.25904311  0.70171460  0.47449626     1.88900
O323        O  0.18717041  0.64836845  0.53747387    -0.74000
O324        O  0.14065684  0.70807988  0.40750078    -0.53300
O325        O  0.22443080  0.65160145  0.42838150    -0.98000
O326        O  0.33159581  0.68262118  0.48842876    -0.55200
O327        O  0.25410521  0.64078853  0.51599278    -0.74600
C328        C  0.21880862  0.62553810  0.52565245     0.97800
O329        O  0.12396471  0.69536648  0.60425090    -0.63400
O330        O  0.31082742  0.83600850  0.60724639    -0.58200
O331        O  0.19070611  0.73988614  0.62782485    -0.94900
O332        O  0.24637022  0.78440001  0.63347552    -0.93300
O333        O  0.22177675  0.90466419  0.57503085    -0.93600
O334        O  0.14803424  0.86152820  0.60075806    -0.92400
C335        C  0.21653028  0.76299368  0.64941429     1.16600
H336        H  0.27560261  0.86515104  0.53424863     0.32600
H337        H  0.12450418  0.79860536  0.52311931     0.43400
H338        H  0.25457213  0.69385661  0.56711221     0.37000
H339        H  0.24274814  0.74963858  0.40556618     0.33400
H340        H  0.11854972  0.90979941  0.53676397     0.25200
H341        H  0.11485743  0.71621591  0.39230697     0.31200
H342        H  0.24143473  0.62580400  0.43002960     0.37100
H343        H  0.20034778  0.92611995  0.58071926     0.31500
H344        H  0.33087638  0.82132056  0.62601281     0.30400
H345        H  0.32042669  0.74115147  0.63548198     0.32100
H346        H  0.33147944  0.65165430  0.49189090     0.31100
H347        H  0.16601562  0.84886802  0.62286138     0.35100
H348        H  0.10930071  0.72024892  0.61515540     0.27800
H349        H  0.34037575  0.82624359  0.40171344     0.32000
H350        H  0.30923147  0.66083614  0.41206629     0.34900
H351        H  0.32866753  0.85224866  0.58715208     0.27500
H352        H  0.10255353  0.68081212  0.58738932     0.40400
H353        H  0.12597498  0.84799905  0.41382207     0.30400
H354        H  0.10876793  0.88009368  0.49902433     0.38000
H355        H  0.33739982  0.69322417  0.51704819     0.29900
H356        H  0.16171100  0.70431027  0.38493238     0.29900
H357        H  0.34139977  0.86835289  0.42678056     0.30200
Zr358      Zr  0.27163794  0.46723559  0.79262283     2.17500
O359        O  0.30524599  0.41951173  0.84124841    -0.52200
O360        O  0.34700553  0.48317273  0.77573834    -0.75400
O361        O  0.26497980  0.39350892  0.76874428    -0.82100
O362        O  0.21177534  0.54753239  0.87282919    -0.83900
O363        O  0.23593816  0.38607523  0.70378466    -0.79500
O364        O  0.24885313  0.48696431  0.86767914    -0.91100
O365        O  0.35233197  0.50462758  0.70792006    -0.77100
O366        O  0.28310574  0.47758266  0.71912629    -0.86600
O367        O  0.28590508  0.54045854  0.78398027    -0.86300
O368        O  0.20734965  0.44511608  0.75959061    -0.73000
O369        O  0.21084191  0.50261200  0.81270262    -0.85200
Zr370      Zr  0.17209764  0.56438597  0.69641468     2.26400
Zr371      Zr  0.21983510  0.45651407  0.68559513     2.06300
Zr372      Zr  0.22288650  0.57499432  0.80475052     2.10000
Zr373      Zr  0.29602438  0.55109446  0.70949165     1.78800
O374        O  0.16937134  0.61973306  0.83489106    -0.94000
O375        O  0.32316246  0.55253127  0.63750319    -0.41800
O376        O  0.23402091  0.58187322  0.73187770    -0.78400
O377        O  0.23482895  0.52965613  0.67360206    -0.97100
O378        O  0.15878049  0.49167730  0.70790073    -0.90400
O379        O  0.15888975  0.55607312  0.77030199    -0.93300
C380        C  0.36879823  0.49378164  0.74241389     1.00500
C381        C  0.22739640  0.51472001  0.88913095     1.13400
C382        C  0.25016076  0.37119540  0.73822934     1.04200
O383        O  0.27167233  0.43009087  0.63651977    -0.95400
O384        O  0.20093583  0.47569327  0.61575482    -0.91200
O385        O  0.17513339  0.54165807  0.62226307    -0.84300
C386        C  0.18775797  0.51022208  0.60037531     1.10800
O387        O  0.14329026  0.44877662  0.85159408    -0.97400
Zr388      Zr  0.14764998  0.48211743  0.78191570     1.88900
O389        O  0.09650056  0.54706876  0.71059066    -0.74000
O390        O  0.16121750  0.41305541  0.66278088    -0.53300
O391        O  0.11705553  0.41169396  0.78298982    -0.98000
O392        O  0.09602156  0.51684992  0.82602803    -0.55200
O393        O  0.09334395  0.47951544  0.73243604    -0.74600
C394        C  0.07572070  0.51324995  0.72169044     0.97800
O395        O  0.14781104  0.62013406  0.64978639    -0.63400
O396        O  0.27555048  0.60786939  0.84943770    -0.58200
O397        O  0.19454291  0.63816585  0.71723306    -0.94900
O398        O  0.23620156  0.64134868  0.77528069    -0.93300
O399        O  0.34879162  0.59304957  0.74562830    -0.93600
O400        O  0.30156102  0.62143567  0.67836242    -0.92400
C401        C  0.21849335  0.65837725  0.74382731     1.16600
H402        H  0.30958637  0.54921142  0.80062236     0.32600
H403        H  0.24344764  0.53632182  0.64513948     0.43400
H404        H  0.13575279  0.57329019  0.77885239     0.37000
H405        H  0.19777491  0.41717267  0.76698365     0.33400
H406        H  0.35260027  0.56211611  0.64016394     0.25200
H407        H  0.17381221  0.39187546  0.64417862     0.31200
H408        H  0.08766274  0.41561716  0.79199118     0.37100
H409        H  0.37458491  0.59002665  0.72861165     0.31500
H410        H  0.25941297  0.62316337  0.87092041     0.30400
H411        H  0.18477104  0.63901714  0.85363833     0.32100
H412        H  0.07871652  0.53426032  0.80684278     0.31100
H413        H  0.27259700  0.62892791  0.67039565     0.35100
H414        H  0.17345507  0.63051937  0.63525606     0.27800
H415        H  0.32510167  0.40367247  0.82365730     0.32000
H416        H  0.16959959  0.43278096  0.85448948     0.34900
H417        H  0.28873314  0.58451238  0.86538205     0.27500
H418        H  0.13195425  0.60580636  0.62750943     0.40400
H419        H  0.28298802  0.45545486  0.62187207     0.30400
H420        H  0.32517689  0.52267053  0.62955783     0.38000
H421        H  0.11220174  0.53723831  0.84289493     0.29900
H422        H  0.15239960  0.39697824  0.68834142     0.29900
H423        H  0.28245451  0.39926560  0.84814757     0.30200
Zr424      Zr  0.02950245  0.71395523  0.70629169     2.17500
O425        O  0.07728040  0.66873627  0.67004766    -0.52200
O426        O  0.01306086  0.63959512  0.72072950    -0.75400
O427        O  0.10314532  0.72609121  0.72900679    -0.82100
O428        O  0.94672000  0.75748391  0.62350372    -0.83900
O429        O  0.10813566  0.75760115  0.79280340    -0.79500
O430        O  0.01304576  0.73206734  0.62927264    -0.91100
O431        O  0.99629554  0.63400636  0.78915189    -0.77100
O432        O  0.02037445  0.70703894  0.78061650    -0.86600
O433        O  0.95712857  0.69525034  0.71742969    -0.86300
O434        O  0.04820495  0.78140313  0.73427529    -0.73000
O435        O  0.98865382  0.77010415  0.68214720    -0.85200
Zr436      Zr  0.92890615  0.81316946  0.79566639     2.26400
Zr437      Zr  0.03817219  0.77388947  0.80870859     2.06300
Zr438      Zr  0.91766909  0.75331449  0.69213286     2.10000
Zr439      Zr  0.94825545  0.68950588  0.79213201     1.78800
O440        O  0.87486816  0.80035177  0.64919480    -0.94000
O441        O  0.95642151  0.66200837  0.86381875    -0.41800
O442        O  0.90962773  0.74726088  0.76632184    -0.78400
O443        O  0.96710621  0.75378429  0.82269487    -0.97100
O444        O  0.99955239  0.83179138  0.78139662    -0.90400
O445        O  0.93491377  0.82010913  0.72094844    -0.93300
C446        C  0.00245417  0.61784833  0.75363687     1.00500
C447        C  0.98201071  0.74835973  0.60761414     1.13400
C448        C  0.12415524  0.74268628  0.75969750     1.04200
O449        O  0.07320412  0.73057213  0.86158971    -0.95400
O450        O  0.02030875  0.79234301  0.87842617    -0.91200
O451        O  0.95189057  0.81107200  0.87196770    -0.84300
C452        C  0.98498435  0.80126767  0.89414998     1.10800
O453        O  0.06699463  0.84123686  0.65885672    -0.97400
Zr454      Zr  0.00690251  0.83634807  0.70638517     1.88900
O455        O  0.94269775  0.88810551  0.77602311    -0.74000
O456        O  0.07657834  0.83898907  0.82137513    -0.53300
O457        O  0.05740987  0.88651464  0.73405163    -0.98000
O458        O  0.98707944  0.85360501  0.63386106    -0.55200
O459        O  0.96957409  0.89879302  0.71062696    -0.74600
C460        C  0.95541667  0.91208543  0.74505983     0.97800
O461        O  0.87992147  0.85440000  0.83480629    -0.63400
O462        O  0.88618701  0.69200081  0.65895660    -0.58200
O463        O  0.85535091  0.79199997  0.77670586    -0.94900
O464        O  0.84853020  0.75326823  0.71728886    -0.93300
O465        O  0.90350552  0.63514489  0.76233265    -0.93600
O466        O  0.88408689  0.68387874  0.83362899    -0.92400
C467        C  0.83338323  0.77121185  0.74920827     1.16600
H468        H  0.94849319  0.67027995  0.70277935     0.32600
H469        H  0.96161669  0.74475536  0.85131445     0.43400
H470        H  0.91595406  0.84102037  0.70996875     0.37000
H471        H  0.07554259  0.79215674  0.72669491     0.33400
H472        H  0.95219264  0.63126959  0.86155767     0.25200
H473        H  0.08983789  0.83475531  0.84930405     0.31200
H474        H  0.05617384  0.91099488  0.71448608     0.37100
H475        H  0.89981567  0.61407627  0.78539443     0.31500
H476        H  0.85824336  0.70138647  0.64946593     0.30400
H477        H  0.86220751  0.78221346  0.62748663     0.32100
H478        H  0.99447891  0.88366066  0.62972277     0.31100
H479        H  0.88122269  0.71165502  0.84692374     0.35100
H480        H  0.89600575  0.88011202  0.84142763     0.27800
H481        H  0.05848149  0.64951913  0.65479825     0.32000
H482        H  0.06866282  0.87097573  0.64934278     0.34900
H483        H  0.90217029  0.68813645  0.63252469     0.27500
H484        H  0.86007370  0.86359408  0.81268426     0.40400
H485        H  0.05236324  0.70863324  0.86952150     0.30400
H486        H  0.98657011  0.66548799  0.87009221     0.38000
H487        H  0.95609192  0.85297642  0.63398079     0.29900
H488        H  0.10023078  0.83901531  0.80113007     0.29900
H489        H  0.08930817  0.65108854  0.69291640     0.30200
C490        C  0.24151853  0.77422954  0.76702894     0.85700
C491        C  0.23906625  0.78869125  0.72027008    -0.54600
C492        C  0.21413306  0.76372840  0.69542909     0.08600
C493        C  0.19170181  0.72885594  0.71872885     0.19500
C494        C  0.19451086  0.77334518  0.78023872    -0.55300
C495        C  0.16930347  0.74891235  0.75484915     0.08700
C496        C  0.25209272  0.72687104  0.76496461    -0.54800
C497        C  0.22509975  0.70372343  0.73997942     0.09300
H498        H  0.25670905  0.81513782  0.70731735     0.13800
H499        H  0.17108040  0.70981906  0.69816189    -0.00500
H500        H  0.18210016  0.79065423  0.80661342     0.14100
H501        H  0.27584161  0.71253242  0.78480258     0.13900
Zr502      Zr  0.41808590  0.81109177  0.30717749     2.17500
O503        O  0.38018961  0.86950059  0.33487915    -0.52200
O504        O  0.43029400  0.79567162  0.38240463    -0.75400
O505        O  0.34477981  0.78615308  0.30311423    -0.82100
O506        O  0.49977478  0.89276784  0.25089918    -0.83900
O507        O  0.33827254  0.72218768  0.27260815    -0.79500
O508        O  0.43618511  0.88547483  0.28282591    -0.91100
O509        O  0.44867898  0.72788872  0.38666653    -0.77100
O510        O  0.42746542  0.73778332  0.31797125    -0.86600
O511        O  0.49035034  0.80265433  0.32557598    -0.86300
O512        O  0.39686337  0.77961920  0.24212070    -0.73000
O513        O  0.45781638  0.83113620  0.24888864    -0.85200
Zr514      Zr  0.51682880  0.72101698  0.20907246     2.26400
Zr515      Zr  0.40811811  0.70611545  0.25326266     2.06300
Zr516      Zr  0.52872976  0.82606775  0.26496592     2.10000
Zr517      Zr  0.50004592  0.72858112  0.33355951     1.78800
O518        O  0.57532335  0.86692061  0.21880903    -0.94000
O519        O  0.49735173  0.65636727  0.36044907    -0.41800
O520        O  0.53750970  0.75262583  0.27354564    -0.78400
O521        O  0.48019456  0.69579393  0.27071859    -0.97100
O522        O  0.44503435  0.73113257  0.19209404    -0.90400
O523        O  0.50991429  0.79482088  0.19990164    -0.93300
C524        C  0.44043895  0.76237494  0.40366151     1.00500
C525        C  0.46500186  0.90754809  0.26280972     1.13400
C526        C  0.32298722  0.75538302  0.28796617     1.04200
O527        O  0.37760726  0.65399334  0.30154666    -0.95400
O528        O  0.42920023  0.63713918  0.23641263    -0.91200
O529        O  0.49623756  0.64487023  0.21264045    -0.84300
C530        C  0.46417905  0.62228803  0.22497010     1.10800
O531        O  0.37588033  0.85080722  0.17990551    -0.97400
Zr532      Zr  0.43699215  0.80542031  0.18434364     1.88900
O533        O  0.50492681  0.73929714  0.13357647    -0.74000
O534        O  0.36501365  0.68652879  0.19332662    -0.53300
O535        O  0.39311112  0.77293663  0.13099018    -0.98000
O536        O  0.44939985  0.87834088  0.16273867    -0.55200
O537        O  0.47999475  0.80510241  0.12531896    -0.74600
C538        C  0.49322780  0.77118166  0.11072456     0.97800
O539        O  0.56560599  0.67391764  0.17722269    -0.63400
O540        O  0.55520988  0.86460527  0.32537589    -0.58200
O541        O  0.59044000  0.74253612  0.22461781    -0.94900
O542        O  0.59752027  0.80189178  0.26295661    -0.93300
O543        O  0.54055394  0.76278871  0.38852544    -0.93600
O544        O  0.56623369  0.69216114  0.34306692    -0.92400
C545        C  0.61246849  0.77047709  0.24437030     1.16600
H546        H  0.49769726  0.81820543  0.35043869     0.32600
H547        H  0.48674894  0.66767099  0.27980939     0.43400
H548        H  0.52954181  0.80566833  0.17913509     0.37000
H549        H  0.36883513  0.78607619  0.23313913     0.33400
H550        H  0.50067790  0.65867526  0.39138324     0.25200
H551        H  0.34331003  0.66744855  0.20543322     0.31200
H552        H  0.39229714  0.79380291  0.10750756     0.37100
H553        H  0.54296842  0.74132576  0.41131067     0.31500
H554        H  0.58394124  0.85404084  0.32977069     0.30400
H555        H  0.58494355  0.89079780  0.23603874     0.32100
H556        H  0.44339138  0.87945420  0.13210237     0.31100
H557        H  0.57669386  0.68742012  0.31410989     0.35100
H558        H  0.58601895  0.69310438  0.16330696     0.27800
H559        H  0.38765521  0.86777661  0.36503983     0.32000
H560        H  0.35206151  0.83217398  0.17271268     0.34900
H561        H  0.55918884  0.89382179  0.31485181     0.27500
H562        H  0.58040795  0.66258668  0.20227869     0.40400
H563        H  0.39024147  0.66008381  0.32929783     0.30400
H564        H  0.46791724  0.64726239  0.35660056     0.38000
H565        H  0.48012132  0.88224808  0.16461102     0.29900
H566        H  0.34968392  0.71243594  0.18565011     0.29900
H567        H  0.35053887  0.86074462  0.33306967     0.30200
C568        C  0.34689301  0.88802494  0.88232852    -0.03300
C569        C  0.46139291  0.99964692  0.76641009     0.85700
C570        C  0.46505216  0.04626600  0.77952347    -0.54600
C571        C  0.48960852  0.07092025  0.75287658     0.08600
C572        C  0.50787700  0.04844620  0.71617848     0.19500
C573        C  0.44723529  0.00226386  0.71952615    -0.55300
C574        C  0.47175347  0.02836998  0.69418411     0.08700
C575        C  0.50826113  0.98639354  0.76166532    -0.54800
C576        C  0.53168950  0.01281555  0.73533690     0.09300
H577        H  0.44907233  0.05864742  0.80684456     0.13800
H578        H  0.52715534  0.06910073  0.69510375    -0.00500
H579        H  0.42090855  0.98445376  0.70735000     0.14100
H580        H  0.52195234  0.95958988  0.77776451     0.13900
C581        C  0.45849434  0.77614432  0.99491521     0.85700
C582        C  0.50432094  0.77193526  0.97952997    -0.54600
C583        C  0.52941915  0.74733704  0.00537047     0.08600
C584        C  0.50751080  0.72976033  0.04396567     0.19500
C585        C  0.44353702  0.73030902  0.00253878    -0.55300
C586        C  0.46922816  0.70682273  0.02858643     0.08700
C587        C  0.46507472  0.79251994  0.04034442    -0.54800
C588        C  0.49013946  0.76745658  0.06533465     0.09300
H589        H  0.51686070  0.78995889  0.95302752     0.13800
H590        H  0.52806828  0.71032550  0.06452496    -0.00500
H591        H  0.41546426  0.71755917  0.98815811     0.14100
H592        H  0.45095562  0.82059522  0.05262026     0.13900
C593        C  0.71197310  0.52914815  0.51325810     0.85700
C594        C  0.69278111  0.48476104  0.50464486    -0.54600
C595        C  0.71757154  0.45947281  0.47964546     0.08600
C596        C  0.75759866  0.47995772  0.46497675     0.15500
C597        C  0.75579676  0.51722513  0.53111080    -0.55300
C598        C  0.77931185  0.49237054  0.50478775     0.08700
C599        C  0.72158038  0.54664034  0.46843541    -0.54800
C600        C  0.74507391  0.52037930  0.44370518     0.09300
H601        H  0.66425462  0.47323728  0.51962484     0.13800
H602        H  0.77686057  0.45958901  0.44461299    -0.00500
H603        H  0.76758429  0.52811644  0.56107687     0.14100
H604        H  0.70888586  0.57610528  0.45670837     0.13900
Zr605      Zr  0.67195122  0.56751103  0.20659537     2.17500
O606        O  0.62222263  0.60698839  0.16581539    -0.52200
O607        O  0.59669885  0.55119321  0.22330321    -0.75400
O608        O  0.68352484  0.54779854  0.12974560    -0.82100
O609        O  0.71710957  0.65117493  0.28661183    -0.83900
O610        O  0.71110948  0.48239142  0.12513771    -0.79500
O611        O  0.68697628  0.64342008  0.22216240    -0.91100
O612        O  0.58803369  0.51618630  0.28567868    -0.77100
O613        O  0.66138905  0.49473880  0.21990926    -0.86600
O614        O  0.66174350  0.55882267  0.28112190    -0.86300
O615        O  0.73692166  0.53709764  0.18453440    -0.73000
O616        O  0.73370820  0.59237902  0.24090539    -0.85200
Zr617      Zr  0.77593504  0.47253356  0.30131822     2.26400
Zr618      Zr  0.72456336  0.46403329  0.19560006     2.06300
Zr619      Zr  0.72424059  0.58179970  0.31428038     2.10000
Zr620      Zr  0.65322535  0.48531078  0.29474472     1.78800
O621        O  0.77425727  0.63053849  0.34530822    -0.94000
O622        O  0.60739044  0.43036036  0.26765835    -0.41800
O623        O  0.71551259  0.50816667  0.32646308    -0.78400
O624        O  0.71200713  0.45047157  0.26885606    -0.97100
O625        O  0.78779389  0.48623001  0.22858394    -0.90400
O626        O  0.78634765  0.54691680  0.29371596    -0.93300
C627        C  0.57378086  0.53454956  0.25322813     1.00500
C628        C  0.70332324  0.66605619  0.25185600     1.13400
C629        C  0.69914716  0.51661556  0.10853742     1.04200
O630        O  0.67024181  0.42039938  0.16435601    -0.95400
O631        O  0.73710077  0.39335474  0.20986484    -0.91200
O632        O  0.76805241  0.39740318  0.27431170    -0.84300
C633        C  0.75200427  0.37648512  0.24277816     1.10800
O634        O  0.80695042  0.60364369  0.15690100    -0.97400
Zr635      Zr  0.79676382  0.56061334  0.22049607     1.88900
O636        O  0.85110865  0.49007293  0.28966279    -0.74000
O637        O  0.78385322  0.43890302  0.15498578    -0.53300
O638        O  0.84410602  0.53033059  0.16896010    -0.98000
O639        O  0.81512141  0.63336966  0.23539258    -0.55200
O640        O  0.85996561  0.55375331  0.25736487    -0.74600
C641        C  0.87401487  0.52106015  0.27543047     0.97800
O642        O  0.80580584  0.42033336  0.34828288    -0.63400
O643        O  0.66763710  0.60743210  0.35844065    -0.58200
O644        O  0.76263101  0.49389573  0.37582351    -0.94900
O645        O  0.74323889  0.56212140  0.38342652    -0.93300
O646        O  0.62822222  0.50129135  0.36539709    -0.93600
O647        O  0.65219358  0.42418216  0.34223130    -0.92400
C648        C  0.75211514  0.52610452  0.39831888     1.16600
H649        H  0.63862708  0.57542166  0.29091328     0.32600
H650        H  0.70228929  0.42240150  0.27535018     0.43400
H651        H  0.80838589  0.55696812  0.31184495     0.37000
H652        H  0.74782293  0.54478921  0.15714421     0.33400
H653        H  0.58354323  0.42888722  0.28766164     0.25200
H654        H  0.77140879  0.42020206  0.13362626     0.31200
H655        H  0.85692124  0.50587287  0.18345800     0.37100
H656        H  0.65303131  0.49893003  0.38393403     0.31500
H657        H  0.65908671  0.58293285  0.37615938     0.30400
H658        H  0.75706207  0.65051848  0.36137173     0.32100
H659        H  0.84592961  0.63505789  0.23225325     0.31100
H660        H  0.68043906  0.42366427  0.35504453     0.35100
H661        H  0.78257894  0.40034158  0.35440531     0.27800
H662        H  0.62515664  0.59650462  0.13684962     0.32000
H663        H  0.83695448  0.61172755  0.15659520     0.34900
H664        H  0.68143054  0.62678357  0.37833692     0.27500
H665        H  0.82529798  0.40479703  0.33012652     0.40400
H666        H  0.65388371  0.40915361  0.18865571     0.30400
H667        H  0.59533144  0.44229268  0.24138114     0.38000
H668        H  0.81020006  0.63616844  0.26605154     0.29900
H669        H  0.79382023  0.46376153  0.13856044     0.29900
H670        H  0.63498879  0.63524893  0.16544523     0.30200
C671        C  0.71435934  0.25989496  0.23274999     0.85700
C672        C  0.70295324  0.26221557  0.28024507    -0.54600
C673        C  0.73017110  0.28521217  0.30437636     0.08600
C674        C  0.76569839  0.30516148  0.28005507     0.19500
C675        C  0.71767576  0.30756275  0.22055737    -0.55300
C676        C  0.74515611  0.33059873  0.24564742     0.08700
C677        C  0.76023652  0.24570069  0.23281637    -0.54800
C678        C  0.78653745  0.27008509  0.25667677     0.09300
H679        H  0.67489654  0.24880301  0.29421894     0.13800
H680        H  0.78711298  0.32388645  0.30010773    -0.00500
H681        H  0.69876828  0.32213270  0.19615204     0.14100
H682        H  0.77148740  0.22074921  0.21289290     0.13900
Zr683      Zr  0.67172513  0.06417260  0.70395047     2.17500
O684        O  0.64211872  0.11696839  0.65686791    -0.52200
O685        O  0.59704529  0.04621327  0.71835295    -0.75400
O686        O  0.67946435  0.04038969  0.62927050    -0.82100
O687        O  0.71942454  0.14500534  0.79317380    -0.83900
O688        O  0.70981744  0.97638479  0.62332944    -0.79500
O689        O  0.69223277  0.13772958  0.72731879    -0.91100
O690        O  0.59519171  0.97773445  0.73601130    -0.77100
O691        O  0.66182811  0.99082229  0.71463524    -0.86600
O692        O  0.65514551  0.05384065  0.77744694    -0.86300
O693        O  0.73670930  0.03283717  0.68339936    -0.73000
O694        O  0.73039288  0.08534110  0.74315112    -0.85200
Zr695      Zr  0.77088123  0.96876655  0.80294858     2.26400
Zr696      Zr  0.72559921  0.95918458  0.69438729     2.06300
Zr697      Zr  0.71602154  0.07466914  0.81562167     2.10000
Zr698      Zr  0.64701351  0.97968315  0.78797349     1.78800
O699        O  0.76726508  0.11478988  0.85563776    -0.94000
O700        O  0.61784429  0.90860074  0.78726676    -0.41800
O701        O  0.70739019  0.00135290  0.82422572    -0.78400
O702        O  0.70872623  0.94627348  0.76718495    -0.97100
O703        O  0.78673069  0.98218469  0.73073227    -0.90400
O704        O  0.78014952  0.04282134  0.79640176    -0.93300
C705        C  0.57698071  0.01188147  0.72846608     1.00500
C706        C  0.70846762  0.16003882  0.75775510     1.13400
C707        C  0.69459922  0.00975815  0.60742400     1.04200
O708        O  0.67368786  0.91353866  0.66200658    -0.95400
O709        O  0.73739163  0.88870636  0.71377035    -0.91200
O710        O  0.76524200  0.89294278  0.77973318    -0.84300
C711        C  0.75027713  0.87199316  0.74786488     1.10800
O712        O  0.80342150  0.10240455  0.66136831    -0.97400
Zr713      Zr  0.79426128  0.05667306  0.72325500     1.88900
O714        O  0.84683923  0.98462122  0.78919218    -0.74000
O715        O  0.78750690  0.93619059  0.65645261    -0.53300
O716        O  0.84422562  0.02584296  0.67476904    -0.98000
O717        O  0.81291825  0.12909776  0.73920146    -0.55200
O718        O  0.85443634  0.05131266  0.76446776    -0.74600
C719        C  0.86942548  0.01679937  0.77701060     0.97800
O720        O  0.79964699  0.92603870  0.85824595    -0.63400
O721        O  0.65779474  0.10818017  0.85138803    -0.58200
O722        O  0.75681362  0.98657170  0.87809210    -0.94900
O723        O  0.71985743  0.04692108  0.88438694    -0.93300
O724        O  0.59250513  0.01384590  0.82860673    -0.93600
O725        O  0.64104914  0.94183619  0.85516837    -0.92400
C726        C  0.73735278  0.01461633  0.89987682     1.16600
H727        H  0.63093893  0.06975882  0.78564717     0.32600
H728        H  0.69903499  0.91836422  0.77416215     0.43400
H729        H  0.80131459  0.05260174  0.81568810     0.37000
H730        H  0.74650313  0.04011566  0.65542937     0.33400
H731        H  0.58729132  0.91210602  0.79090191     0.25200
H732        H  0.77794889  0.91158967  0.64023023     0.31200
H733        H  0.87120832  0.04011117  0.68056091     0.37100
H734        H  0.57193562  0.99123189  0.83522803     0.31500
H735        H  0.64462605  0.08554233  0.86876076     0.30400
H736        H  0.75058618  0.13126301  0.87576791     0.32100
H737        H  0.84388640  0.13018998  0.73841271     0.31100
H738        H  0.64827459  0.96280242  0.87677934     0.35100
H739        H  0.77819035  0.90362312  0.86168469     0.27800
H740        H  0.63815995  0.10301537  0.62957061     0.32000
H741        H  0.83372655  0.10906121  0.65995344     0.34900
H742        H  0.67111041  0.12696713  0.87213089     0.27500
H743        H  0.82348598  0.91278934  0.84409385     0.40400
H744        H  0.65800026  0.90071698  0.68599483     0.30400
H745        H  0.62119985  0.89919712  0.75783750     0.38000
H746        H  0.80574702  0.13210020  0.76940321     0.29900
H747        H  0.79278379  0.95838758  0.63480795     0.29900
H748        H  0.66517673  0.13731378  0.65134332     0.30200
C749        C  0.73525440  0.27908641  0.76565004     0.85700
C750        C  0.74064313  0.23123987  0.77577929    -0.54600
C751        C  0.71511860  0.20521259  0.75181208     0.08600
C752        C  0.68740463  0.22771255  0.72099832     0.19500
C753        C  0.74234476  0.28041883  0.71707742    -0.55300
C754        C  0.71643293  0.25419439  0.69455073     0.08700
C755        C  0.68742253  0.28454233  0.77113515    -0.54800
C756        C  0.66319155  0.25671585  0.74836541     0.09300
H757        H  0.76122283  0.21933029  0.80031407     0.13800
H758        H  0.66726013  0.20648391  0.70215375    -0.00500
H759        H  0.76726316  0.29789118  0.70160322     0.14100
H760        H  0.67417623  0.30623046  0.79352290     0.13900
Zr761      Zr  0.67098520  0.21976425  0.55251653     2.17500
O762        O  0.62288405  0.16770816  0.58236846    -0.52200
O763        O  0.68546405  0.23590693  0.62806200    -0.75400
O764        O  0.69570068  0.14471569  0.54528672    -0.82100
O765        O  0.58910014  0.31076697  0.51561702    -0.83900
O766        O  0.76079071  0.13942642  0.51654731    -0.79500
O767        O  0.59645011  0.24338505  0.53906263    -0.91100
O768        O  0.75217094  0.25912715  0.63126232    -0.77100
O769        O  0.74391919  0.23150842  0.56229091    -0.86600
O770        O  0.68082728  0.29330353  0.56480436    -0.86300
O771        O  0.70375632  0.19924262  0.48776734    -0.73000
O772        O  0.64652645  0.25661777  0.49120987    -0.85200
Zr773      Zr  0.76810452  0.31732861  0.44920745     2.26400
Zr774      Zr  0.77700207  0.20997265  0.49891857     2.06300
Zr775      Zr  0.65921819  0.32941411  0.50215028     2.10000
Zr776      Zr  0.75413516  0.30510291  0.57308426     1.78800
O777        O  0.61302049  0.35807534  0.44795484    -0.94000
O778        O  0.82447824  0.30087156  0.60251692    -0.41800
O779        O  0.73240358  0.34000440  0.51103182    -0.78400
O780        O  0.79026975  0.28259821  0.51280204    -0.97100
O781        O  0.75425985  0.24518479  0.43635143    -0.90400
O782        O  0.69410467  0.30978343  0.43900344    -0.93300
C783        C  0.71796786  0.24903074  0.64869517     1.00500
C784        C  0.57396548  0.27544845  0.52679930     1.13400
C785        C  0.72704691  0.12320435  0.53051799     1.04200
O786        O  0.82312485  0.17761783  0.55086430    -0.95400
O787        O  0.84796200  0.22560436  0.48393083    -0.91200
O788        O  0.84381764  0.29104929  0.45432205    -0.84300
C789        C  0.86500097  0.25874915  0.46890649     1.10800
O790        O  0.63599898  0.17483958  0.41941927    -0.97400
Zr791      Zr  0.68012876  0.23709783  0.42818770     1.88900
O792        O  0.75617657  0.30329491  0.37304775    -0.74000
O793        O  0.79672238  0.17011474  0.43710243    -0.53300
O794        O  0.70758097  0.18488241  0.38016286    -0.98000
O795        O  0.60961771  0.25524776  0.40528567    -0.55200
O796        O  0.69178421  0.27394458  0.36476963    -0.74600
C797        C  0.72593249  0.28854447  0.35024938     0.97800
O798        O  0.81556646  0.37216155  0.42542319    -0.63400
O799        O  0.63650380  0.37546916  0.55858249    -0.58200
O800        O  0.74378314  0.39128587  0.46211736    -0.94900
O801        O  0.67669975  0.39917943  0.48481212    -0.93300
O802        O  0.71817898  0.34916519  0.62357994    -0.93600
O803        O  0.78944891  0.37311800  0.57693452    -0.92400
C804        C  0.71204882  0.41394159  0.47399641     1.16600
H805        H  0.66468227  0.30204517  0.58884864     0.32600
H806        H  0.81844186  0.28881723  0.52153249     0.43400
H807        H  0.68457236  0.32794378  0.41637454     0.37000
H808        H  0.69693768  0.17141212  0.47832459     0.33400
H809        H  0.82132996  0.30857215  0.63250055     0.25200
H810        H  0.82100514  0.15322325  0.44633880     0.31200
H811        H  0.73262251  0.19807678  0.36690987     0.37100
H812        H  0.73683747  0.34967454  0.64842865     0.31500
H813        H  0.61808332  0.39628316  0.54459184     0.30400
H814        H  0.59630431  0.37965388  0.46235568     0.32100
H815        H  0.61070507  0.25526719  0.37406142     0.31100
H816        H  0.80083160  0.37837520  0.54821633     0.35100
H817        H  0.82862111  0.38186149  0.45190423     0.27800
H818        H  0.61891515  0.14700055  0.55972082     0.32000
H819        H  0.62661557  0.17558809  0.38965551     0.34900
H820        H  0.61723368  0.35837571  0.57649759     0.27500
H821        H  0.83818088  0.35726853  0.41083967     0.40400
H822        H  0.83192632  0.20091471  0.56924565     0.30400
H823        H  0.83098305  0.27052410  0.60337709     0.38000
H824        H  0.60642000  0.28514902  0.41251255     0.29900
H825        H  0.77385554  0.14928216  0.43354241     0.29900
H826        H  0.59546394  0.18161916  0.58404294     0.30200
C827        C  0.84459702  0.89681473  0.37620864    -0.03300
C828        C  0.73031881  0.00759106  0.49006171     0.85700
C829        C  0.72487564  0.99106434  0.53623420    -0.54600
C830        C  0.69982293  0.01548351  0.56147411     0.08600
C831        C  0.68388104  0.05482411  0.53999162     0.19500
C832        C  0.68472300  0.01532331  0.47503044    -0.55300
C833        C  0.66122980  0.04057644  0.50118680     0.08700
C834        C  0.74704433  0.05335650  0.49735498    -0.54800
C835        C  0.72223383  0.07746407  0.52363801     0.09300
H836        H  0.74123008  0.96377590  0.54849871     0.13800
H837        H  0.66433373  0.07441193  0.56076863    -0.00500
H838        H  0.67211250  0.00138032  0.44667299     0.14100
H839        H  0.77504628  0.06602203  0.48232518     0.13900
C840        C  0.95918351  0.78671484  0.49333314     0.85700
C841        C  0.94657489  0.74015658  0.48679488    -0.54600
C842        C  0.97158231  0.71137020  0.50770619     0.08600
C843        C  0.00657191  0.73007792  0.53310688     0.19500
C844        C  0.96114628  0.78937355  0.54260740    -0.55300
C845        C  0.98549197  0.75928125  0.56243330     0.08700
C846        C  0.00660759  0.78701518  0.48104649    -0.54800
C847        C  0.03048425  0.75696107  0.50203841     0.09300
H848        H  0.92056209  0.73090415  0.46690838     0.13800
H849        H  0.02618450  0.70660805  0.55000004    -0.00500
H850        H  0.94444526  0.81086503  0.56188780     0.14100
H851        H  0.01989262  0.80879242  0.45785776     0.13900
C852        C  0.73093878  0.78447183  0.26245892     0.85700
C853        C  0.68380239  0.79139980  0.27011173    -0.54600
C854        C  0.65771712  0.76655477  0.24617227     0.08600
C855        C  0.67955223  0.73643636  0.21747646     0.19500
C856        C  0.73543958  0.73608986  0.26917044    -0.55300
C857        C  0.70815217  0.71180697  0.24613526     0.08700
C858        C  0.73495181  0.78914646  0.21338611    -0.54800
C859        C  0.70708520  0.76444176  0.19045305     0.09300
H860        H  0.67213144  0.81446817  0.29197815     0.13800
H861        H  0.65801279  0.71638738  0.19888931    -0.00500
H862        H  0.75800844  0.72127827  0.28979400     0.14100
H863        H  0.75736096  0.81012978  0.19808569     0.13900
C864        C  0.22657924  0.51036069  0.48515398     0.85700
C865        C  0.24116410  0.55667048  0.49331031    -0.54600
C866        C  0.21443388  0.57986209  0.51830034     0.08600
C867        C  0.17665467  0.55578045  0.53358447     0.19500
C868        C  0.22009752  0.49338902  0.53063878    -0.55300
C869        C  0.19338546  0.51661768  0.55500542     0.08700
C870        C  0.18098433  0.51655582  0.46858424    -0.54800
C871        C  0.15558784  0.54076544  0.49430212     0.09300
H872        H  0.26945240  0.57074148  0.48048304     0.13800
H873        H  0.15610199  0.57471191  0.55405556    -0.00500
H874        H  0.23773271  0.46724983  0.54357491     0.14100
H875        H  0.16970657  0.50228033  0.43985696     0.13900
Zr876      Zr  0.41865035  0.47718339  0.94603423     2.17500
O877        O  0.37118480  0.43937956  0.90087198    -0.52200
O878        O  0.43555124  0.49263876  0.87162181    -0.75400
O879        O  0.34539174  0.50075735  0.95708414    -0.82100
O880        O  0.50505714  0.39470323  0.98769097    -0.83900
O881        O  0.34062391  0.56507608  0.98696350    -0.79500
O882        O  0.43730408  0.40096720  0.96607365    -0.91100
O883        O  0.45903066  0.55918324  0.86346318    -0.77100
O884        O  0.42853130  0.55116621  0.93941103    -0.86600
O885        O  0.49085043  0.48925414  0.92862149    -0.86300
O886        O  0.39876979  0.50473142  0.01356491    -0.73000
O887        O  0.45779701  0.45264569  0.00330201    -0.85200
Zr888      Zr  0.51867000  0.56492933  0.04899966     2.26400
Zr889      Zr  0.41014940  0.57880335  0.00632768     2.06300
Zr890      Zr  0.52892230  0.46389075  0.98766005     2.10000
Zr891      Zr  0.50091181  0.56352136  0.92391008     1.78800
O892        O  0.56859385  0.42126289  0.03784862    -0.94000
O893        O  0.48854203  0.63507216  0.89841571    -0.41800
O894        O  0.53894572  0.53757971  0.98239523    -0.78400
O895        O  0.48169596  0.59242246  0.98863264    -0.97100
O896        O  0.44724262  0.55120674  0.06541165    -0.90400
O897        O  0.51141732  0.49077306  0.05496791    -0.93300
C898        C  0.44849337  0.52402278  0.84883945     1.00500
C899        C  0.46919695  0.37928186  0.98080502     1.13400
C900        C  0.32454333  0.53175703  0.97267685     1.04200
O901        O  0.38103912  0.63359627  0.96093516    -0.95400
O902        O  0.42798357  0.64673567  0.02931711    -0.91200
O903        O  0.49653136  0.63993135  0.04722609    -0.84300
C904        C  0.46376057  0.66195486  0.03773492     1.10800
O905        O  0.37716686  0.43199028  0.07896045    -0.97400
Zr906      Zr  0.43899528  0.47662812  0.06961343     1.88900
O907        O  0.50171071  0.54585033  0.12337881    -0.74000
O908        O  0.36775791  0.59242967  0.06850261    -0.53300
O909        O  0.39289400  0.50425102  0.12366334    -0.98000
O910        O  0.45519811  0.40308977  0.08402590    -0.55200
O911        O  0.47946099  0.47859490  0.13047841    -0.74600
C912        C  0.48998388  0.51341182  0.14570804     0.97800
O913        O  0.56688295  0.60992435  0.08627961    -0.63400
O914        O  0.56129266  0.43029409  0.92719077    -0.58200
O915        O  0.59262757  0.54409618  0.03329010    -0.94900
O916        O  0.59729603  0.48812854  0.98976739    -0.93300
O917        O  0.55056024  0.53337774  0.87463920    -0.93600
O918        O  0.56255278  0.60876890  0.91660934    -0.92400
C919        C  0.61346521  0.51733253  0.01085563     1.16600
H920        H  0.49989705  0.47481779  0.90366675     0.32600
H921        H  0.48745179  0.62103203  0.98012247     0.43400
H922        H  0.53059555  0.47953562  0.07570254     0.37000
H923        H  0.37119136  0.49739442  0.02379243     0.33400
H924        H  0.49450372  0.63464208  0.86774746     0.25200
H925        H  0.34584110  0.61196039  0.05847199     0.31200
H926        H  0.38971580  0.48125519  0.14486252     0.37100
H927        H  0.55394093  0.55486482  0.85192664     0.31500
H928        H  0.58198416  0.45100590  0.91605253     0.30400
H929        H  0.59060570  0.40775122  0.02088695     0.32100
H930        H  0.45162696  0.39931359  0.11489819     0.31100
H931        H  0.57484303  0.60959043  0.94523466     0.35100
H932        H  0.57252838  0.63316436  0.06590302     0.27800
H933        H  0.38913328  0.42849189  0.87817263     0.32000
H934        H  0.37328000  0.41835485  0.05136320     0.34900
H935        H  0.57840361  0.40740728  0.93947020     0.27500
H936        H  0.54987026  0.62268563  0.10878112     0.40400
H937        H  0.38261590  0.62239590  0.93202081     0.30400
H938        H  0.45785773  0.63868630  0.90036394     0.38000
H939        H  0.48577059  0.40115610  0.07939313     0.29900
H940        H  0.35260423  0.56569090  0.07432868     0.29900
H941        H  0.35485855  0.46184255  0.88680800     0.30200
C942        C  0.45620044  0.50566362  0.26213764     0.85700
C943        C  0.45966235  0.49175779  0.21588172    -0.54600
C944        C  0.48519796  0.51715551  0.19106223     0.08600
C945        C  0.50525660  0.55346217  0.21338976     0.19500
C946        C  0.50259743  0.50907524  0.27627226    -0.55300
C947        C  0.52788761  0.53341311  0.25006587     0.08700
C948        C  0.44358365  0.55256415  0.25854926    -0.54800
C949        C  0.46896072  0.57682299  0.23216423     0.09300
H950        H  0.44243987  0.46502537  0.20371933     0.13800
H951        H  0.52585781  0.57336854  0.19286744    -0.00500
H952        H  0.51500777  0.49318511  0.30393361     0.14100
H953        H  0.41745394  0.56550045  0.27583125     0.13900
C954        C  0.34551126  0.39649340  0.38019357    -0.03300
C955        C  0.45614867  0.28163938  0.49446377     0.85700
C956        C  0.50268760  0.29693734  0.49787935    -0.54600
C957        C  0.52814124  0.27106289  0.52220342     0.08600
C958        C  0.50597894  0.23345752  0.54106783     0.19500
C959        C  0.46178304  0.23588376  0.47871978    -0.55300
C960        C  0.48715168  0.21118651  0.50414988     0.08700
C961        C  0.44286345  0.27540843  0.54125668    -0.54800
C962        C  0.46932429  0.25035575  0.56504243     0.09300
H963        H  0.51504116  0.32414058  0.48081730     0.13800
H964        H  0.52664450  0.21327049  0.56070214    -0.00500
H965        H  0.44591955  0.22365214  0.45122988     0.14100
H966        H  0.41548077  0.29033215  0.55445149     0.13900
Zr967      Zr  0.51935509  0.06903529  0.55112110     2.17500
O968        O  0.55916598  0.10710716  0.60303250    -0.52200
O969        O  0.50392212  0.14396425  0.53399424    -0.75400
O970        O  0.59473957  0.06262861  0.52847088    -0.82100
O971        O  0.43166319  0.02333555  0.63434901    -0.83900
O972        O  0.60070360  0.03943508  0.46103515    -0.79500
O973        O  0.49730030  0.05031533  0.62582306    -0.91100
O974        O  0.48076349  0.14910129  0.46716836    -0.77100
O975        O  0.50765020  0.08252936  0.47830245    -0.86600
O976        O  0.44581040  0.07998740  0.54319336    -0.86300
O977        O  0.54234022  0.00625886  0.51699907    -0.73000
O978        O  0.48462393  0.00618418  0.57416057    -0.85200
Zr979      Zr  0.42457348  0.96876062  0.45478411     2.26400
Zr980      Zr  0.53100824  0.02154616  0.44383405     2.06300
Zr981      Zr  0.41191661  0.01566176  0.56423730     2.10000
Zr982      Zr  0.43405227  0.09197398  0.46961682     1.78800
O983        O  0.38539496  0.95542199  0.60492413    -0.94000
O984        O  0.43133902  0.12387828  0.39922383    -0.41800
O985        O  0.40144828  0.02878008  0.49132945    -0.78400
O986        O  0.45786443  0.03343949  0.43225579    -0.97100
O987        O  0.49720687  0.95818749  0.46597418    -0.90400
O988        O  0.43330994  0.95403456  0.52841531    -0.93300
C989        C  0.49193386  0.16561111  0.50124608     1.00500
C990        C  0.46648138  0.03522631  0.64878677     1.13400
C991        C  0.61638299  0.04992749  0.49609889     1.04200
O992        O  0.55858870  0.07863854  0.39944164    -0.95400
O993        O  0.51509547  0.00630033  0.37342384    -0.91200
O994        O  0.45076742  0.97555795  0.38006263    -0.84300
C995        C  0.48194110  0.99089156  0.35797745     1.10800
O996        O  0.54412138  0.94523402  0.60686106    -0.97400
Zr997      Zr  0.50664372  0.94497183  0.53979190     1.88900
O998        O  0.43952538  0.89324667  0.47008212    -0.74000
O999        O  0.57459456  0.96478420  0.41865418    -0.53300
O1000       O  0.57698815  0.91617955  0.53519855    -0.98000
O1001       O  0.47392323  0.89138491  0.58550493    -0.55200
O1002       O  0.50621608  0.88880214  0.49252998    -0.74600
C1003       C  0.47203811  0.87189757  0.48194134     0.97800
O1004       O  0.37166957  0.94178758  0.40755615    -0.63400
O1005       O  0.36629303  0.06669919  0.59757666    -0.58200
O1006       O  0.35040020  0.98530985  0.47811935    -0.94900
O1007       O  0.34181393  0.00751845  0.54540268    -0.93300
O1008       O  0.39267389  0.14261907  0.50819772    -0.93600
O1009       O  0.36583470  0.09417465  0.43547865    -0.92400
C1010       C  0.32748383  0.99828044  0.50961116     1.16600
H1011       H  0.43685425  0.10305926  0.56035544     0.32600
H1012       H  0.45116134  0.04289199  0.40409349     0.43400
H1013       H  0.41659957  0.92996975  0.53696642     0.37000
H1014       H  0.57002312  0.99649023  0.52352981     0.33400
H1015       H  0.42363661  0.15352133  0.40386252     0.25200
H1016       H  0.59647271  0.97880659  0.40114342     0.31200
H1017       H  0.57400312  0.88644383  0.54445905     0.37100
H1018       H  0.38251614  0.16240770  0.48620022     0.31500
H1019       H  0.35176102  0.05079689  0.62047965     0.30400
H1020       H  0.36446337  0.96720718  0.62443470     0.32100
H1021       H  0.49604002  0.87032766  0.59053719     0.31100
H1022       H  0.36337479  0.06707365  0.42071739     0.35100
H1023       H  0.35590575  0.96724835  0.39930592     0.27800
H1024       H  0.56828251  0.08533735  0.62356569     0.32000
H1025       H  0.54940504  0.91553115  0.61466522     0.34900
H1026       H  0.38494679  0.08652152  0.61246091     0.27500
H1027       H  0.38683821  0.93477503  0.38153752     0.40400
H1028       H  0.53359434  0.09192062  0.38677110     0.30400
H1029       H  0.46077749  0.12523812  0.38945147     0.38000
H1030       H  0.45325275  0.87636117  0.56797961     0.29900
H1031       H  0.58960982  0.95451488  0.44403874     0.29900
H1032       H  0.53734814  0.12287923  0.61810085     0.30200
C1033       C  0.48829697  0.02360633  0.23968140     0.85700
C1034       C  0.48369079  0.97655848  0.22730408    -0.54600
C1035       C  0.45959798  0.95249387  0.25511078     0.08600
C1036       C  0.44047657  0.97654356  0.29033980     0.19500
C1037       C  0.44197372  0.03721357  0.24328170    -0.55300
C1038       C  0.41773415  0.01225073  0.26977584     0.08700
C1039       C  0.50276976  0.02092044  0.28631816    -0.54800
C1040       C  0.47744885  0.99602483  0.31218082     0.09300
H1041       H  0.50065091  0.96262523  0.20146809     0.13800
H1042       H  0.42015538  0.95696120  0.31141961    -0.00500
H1043       H  0.42858718  0.06261349  0.22477360     0.14100
H1044       H  0.52993013  0.03791718  0.29782601     0.13900
C1045       C  0.98986637  0.52871740  0.24526420     0.85700
C1046       C  0.94571900  0.54560411  0.25466587    -0.54600
C1047       C  0.91964196  0.51779104  0.27584730     0.08600
C1048       C  0.93991948  0.47710092  0.28904621     0.19500
C1049       C  0.00550095  0.51631955  0.29054879    -0.55300
C1050       C  0.97866623  0.48916334  0.31280811     0.08700
C1051       C  0.98164263  0.48520122  0.22527646    -0.54800
C1052       C  0.95617686  0.45846618  0.24910808     0.09300
H1053       H  0.93496563  0.57569522  0.24254548     0.13800
H1054       H  0.91865941  0.45566895  0.30716883    -0.00500
H1055       H  0.03333731  0.52949870  0.30483341     0.14100
H1056       H  0.99743787  0.47543670  0.19675350     0.13900
Zr1057     Zr  0.01202761  0.56877103  0.54413786     2.17500
O1058       O  0.05618004  0.60937158  0.58994485    -0.52200
O1059       O  0.99387903  0.64258676  0.52637842    -0.75400
O1060       O  0.08772734  0.56137536  0.52057483    -0.82100
O1061       O  0.92393693  0.53391490  0.63047754    -0.83900
O1062       O  0.09485935  0.53444453  0.45507377    -0.79500
O1063       O  0.99181925  0.55343718  0.61990204    -0.91100
O1064       O  0.93913234  0.65230733  0.48172436    -0.77100
O1065       O  0.00054786  0.57678347  0.47057437    -0.86600
O1066       O  0.93849810  0.57849914  0.53432423    -0.86300
O1067       O  0.03646450  0.50360789  0.51622108    -0.73000
O1068       O  0.97715739  0.50820401  0.57220049    -0.85200
Zr1069     Zr  0.92012502  0.46098953  0.45435570     2.26400
Zr1070     Zr  0.02584881  0.51263278  0.44245238     2.06300
Zr1071     Zr  0.90459299  0.51659439  0.56079909     2.10000
Zr1072     Zr  0.92642069  0.58384508  0.46014519     1.78800
O1073       O  0.88276444  0.46678759  0.61588268    -0.94000
O1074       O  0.94995562  0.62191190  0.39695401    -0.41800
O1075       O  0.89366476  0.52250777  0.48660676    -0.78400
O1076       O  0.95343414  0.52401293  0.42816517    -0.97100
O1077       O  0.99206932  0.45052992  0.46868848    -0.90400
O1078       O  0.92714330  0.45335673  0.52919250    -0.93300
C1079       C  0.96783552  0.66584514  0.50533138     1.00500
C1080       C  0.96035535  0.54222615  0.64407707     1.13400
C1081       C  0.11011839  0.54756786  0.48916015     1.04200
O1082       O  0.04991788  0.56584442  0.39177435    -0.95400
O1083       O  0.01660012  0.48672574  0.37467582    -0.91200
O1084       O  0.94833653  0.46672736  0.37930952    -0.84300
C1085       C  0.98182977  0.47810176  0.35808021     1.10800
O1086       O  0.06033522  0.44617224  0.59014525    -0.97400
Zr1087     Zr  0.99965977  0.44463227  0.54358708     1.88900
O1088       O  0.93385810  0.38670379  0.47302831    -0.74000
O1089       O  0.07195072  0.45471470  0.42504034    -0.53300
O1090       O  0.05329176  0.39722141  0.51828448    -0.98000
O1091       O  0.98093388  0.42186811  0.61513413    -0.55200
O1092       O  0.96793139  0.37855088  0.53555311    -0.74600
C1093       C  0.95020817  0.36417445  0.50305538     0.97800
O1094       O  0.86983579  0.43450273  0.40444638    -0.63400
O1095       O  0.85442584  0.57176686  0.57584810    -0.58200
O1096       O  0.84624825  0.47462466  0.47688201    -0.94900
O1097       O  0.83842520  0.48748626  0.54668304    -0.93300
O1098       O  0.85864516  0.61256907  0.47940273    -0.93600
O1099       O  0.87575537  0.58000496  0.40287984    -0.92400
C1100       C  0.82374187  0.48270770  0.51006673     1.16600
H1101       H  0.92838926  0.60255262  0.54929499     0.32600
H1102       H  0.94831526  0.53290512  0.39945341     0.43400
H1103       H  0.91001419  0.43047630  0.54008782     0.37000
H1104       H  0.06439838  0.49486823  0.52331643     0.33400
H1105       H  0.93113879  0.64636992  0.39446996     0.25200
H1106       H  0.09398880  0.46721443  0.40661285     0.31200
H1107       H  0.04249049  0.38638468  0.49125955     0.37100
H1108       H  0.83913707  0.58821011  0.48032050     0.31500
H1109       H  0.83265882  0.55774971  0.59347429     0.30400
H1110       H  0.85820989  0.47970216  0.62949660     0.32100
H1111       H  0.95015062  0.41828358  0.61472097     0.31100
H1112       H  0.86664266  0.55019451  0.40259032     0.35100
H1113       H  0.85668481  0.46046286  0.39335747     0.27800
H1114       H  0.08097025  0.61646839  0.57248475     0.32000
H1115       H  0.06347336  0.41701014  0.60090619     0.34900
H1116       H  0.86895998  0.59080518  0.59551008     0.27500
H1117       H  0.88624498  0.42411450  0.38044545     0.40400
H1118       H  0.02477355  0.57308051  0.37507932     0.30400
H1119       H  0.97744657  0.63414612  0.40460425     0.38000
H1120       H  0.98577835  0.44670286  0.63296664     0.29900
H1121       H  0.08656894  0.44771210  0.45170832     0.29900
H1122       H  0.06618618  0.58804416  0.61050742     0.30200
C1123       C  0.98186849  0.24764898  0.50656431     0.85700
C1124       C  0.99866376  0.25625370  0.46102212    -0.54600
C1125       C  0.97447635  0.28331187  0.43666531     0.08600
C1126       C  0.93585671  0.29894335  0.45876583     0.19500
C1127       C  0.97594848  0.29251788  0.52368571    -0.55300
C1128       C  0.95239722  0.31876450  0.49830486     0.08700
C1129       C  0.93514802  0.23373171  0.49922158    -0.54800
C1130       C  0.91162374  0.26078903  0.47387303     0.09300
H1131       H  0.02674919  0.24159742  0.44905646     0.13800
H1132       H  0.91676845  0.32044254  0.43888261    -0.00500
H1133       H  0.99071498  0.30329584  0.55239638     0.14100
H1134       H  0.92031644  0.20784953  0.51595873     0.13900
C1135       C  0.23440911  0.00509944  0.98622231     0.85700
C1136       C  0.18761329  0.00996815  0.97291254    -0.54600
C1137       C  0.16427098  0.03520621  0.99896679     0.08600
C1138       C  0.18799249  0.05263386  0.03569632     0.19500
C1139       C  0.24871335  0.05136810  0.98964941    -0.55300
C1140       C  0.22433130  0.07563707  0.01559690     0.08700
C1141       C  0.23046704  0.98962022  0.03280848    -0.54800
C1142       C  0.20606527  0.01470305  0.05815633     0.09300
H1143       H  0.17310880  0.99479044  0.94638116     0.13800
H1144       H  0.16886365  0.07283421  0.05633298    -0.00500
H1145       H  0.27377998  0.06460773  0.97033857     0.14100
H1146       H  0.24599364  0.96166153  0.04467555     0.13900
Zr1147     Zr  0.02487798  0.06732518  0.04935574     2.17500
O1148       O  0.07454427  0.09306182  0.09992291    -0.52200
O1149       O  0.01544076  0.14186419  0.03436567    -0.75400
O1150       O  0.09868597  0.05755924  0.02657385    -0.82100
O1151       O  0.93062530  0.03738290  0.13291276    -0.83900
O1152       O  0.10260266  0.02738876  0.96204539    -0.79500
O1153       O  0.99935696  0.05385483  0.12368600    -0.91100
O1154       O  0.00177527  0.14230647  0.96542812    -0.77100
O1155       O  0.01675442  0.07577264  0.97514073    -0.86600
O1156       O  0.95386017  0.08849437  0.03767078    -0.86300
O1157       O  0.04225504  0.00059827  0.02020082    -0.73000
O1158       O  0.98195666  0.01235351  0.07532527    -0.85200
Zr1159     Zr  0.92359356  0.97052499  0.95793281     2.26400
Zr1160     Zr  0.03290353  0.00968519  0.94572564     2.06300
Zr1161     Zr  0.91172029  0.03098466  0.06168761     2.10000
Zr1162     Zr  0.94557380  0.09458914  0.96301216     1.78800
O1163       O  0.87081481  0.98429265  0.10776850    -0.94000
O1164       O  0.95545177  0.12400288  0.89211520    -0.41800
O1165       O  0.90517774  0.03666036  0.98731275    -0.78400
O1166       O  0.96243564  0.03046070  0.93207235    -0.97100
O1167       O  0.99357598  0.95147638  0.97310162    -0.90400
O1168       O  0.92753181  0.96395092  0.03305170    -0.93300
C1169       C  0.00608830  0.16108504  0.99975863     1.00500
C1170       C  0.96700953  0.04418215  0.14715301     1.13400
C1171       C  0.11914403  0.04184210  0.99517108     1.04200
O1172       O  0.07010601  0.05382644  0.89431374    -0.95400
O1173       O  0.01457470  0.99460704  0.87523107    -0.91200
O1174       O  0.94652239  0.97373398  0.88154066    -0.84300
C1175       C  0.97939854  0.98492608  0.85941428     1.10800
O1176       O  0.05656835  0.94068928  0.09811642    -0.97400
Zr1177     Zr  0.99873152  0.94682896  0.04852124     1.88900
O1178       O  0.93889636  0.89534635  0.97470483    -0.74000
O1179       O  0.06850883  0.94483568  0.92838236    -0.53300
O1180       O  0.04752130  0.89385336  0.02513774    -0.98000
O1181       O  0.98030866  0.92858120  0.12123274    -0.55200
O1182       O  0.95741204  0.88644426  0.04286293    -0.74600
C1183       C  0.94935925  0.87213574  0.00696238     0.97800
O1184       O  0.87167751  0.93849719  0.91337379    -0.63400
O1185       O  0.87527315  0.09312118  0.08638635    -0.58200
O1186       O  0.85024883  0.98597377  0.97812276    -0.94900
O1187       O  0.84392818  0.02832455  0.03491280    -0.93300
O1188       O  0.90410388  0.15000504  0.99431654    -0.93600
O1189       O  0.88361645  0.10544641  0.91970069    -0.92400
C1190       C  0.82876841  0.00783500  0.00464423     1.16600
H1191       H  0.94685100  0.11375526  0.05249493     0.32600
H1192       H  0.95692319  0.03990807  0.90365387     0.43400
H1193       H  0.90753655  0.94345146  0.04367645     0.37000
H1194       H  0.06960335  0.99021719  0.02741711     0.33400
H1195       H  0.95186533  0.15467723  0.89504388     0.25200
H1196       H  0.08853559  0.95305410  0.90576638     0.31200
H1197       H  0.05020740  0.87474935  0.04986816     0.37100
H1198       H  0.87813098  0.13572123  0.00416066     0.31500
H1199       H  0.85200257  0.08192511  0.10405535     0.30400
H1200       H  0.84697713  0.00142964  0.11730469     0.32100
H1201       H  0.98101706  0.89750843  0.12282090     0.31100
H1202       H  0.87112044  0.07706936  0.91674722     0.35100
H1203       H  0.86885273  0.95824051  0.88912093     0.27800
H1204       H  0.08630121  0.06670785  0.11173838     0.32000
H1205       H  0.06109526  0.96957506  0.10843489     0.34900
H1206       H  0.89440350  0.10664561  0.10671966     0.27500
H1207       H  0.88666567  0.91412799  0.90202851     0.40400
H1208       H  0.05655413  0.08159177  0.89604102     0.30400
H1209       H  0.98559777  0.12054744  0.88591068     0.38000
H1210       H  0.95029915  0.93561368  0.12377843     0.29900
H1211       H  0.08633040  0.93865325  0.95318480     0.29900
H1212       H  0.05713037  0.10379756  0.12305113     0.30200
C1213       C  0.96411110  0.00339964  0.26259167     0.85700
C1214       C  0.00857048  0.98559330  0.25483124    -0.54600
C1215       C  0.03370308  0.01074927  0.22913727     0.08600
C1216       C  0.01295030  0.04984782  0.21279639     0.19500
C1217       C  0.97347363  0.04893949  0.27825120    -0.55300
C1218       C  0.99896453  0.07266556  0.25131543     0.08700
C1219       C  0.94674573  0.01242687  0.21769489    -0.54800
C1220       C  0.97321484  0.03575310  0.19207962     0.09300
H1221       H  0.01997835  0.95763021  0.27094609     0.13800
H1222       H  0.03333500  0.06921997  0.19161516    -0.00500
H1223       H  0.95865372  0.06236800  0.30567046     0.14100
H1224       H  0.91667187  0.00088060  0.20682750     0.13900
C1225       C  0.96787755  0.27502088  0.98252207     0.85700
C1226       C  0.95388426  0.27502708  0.02942198    -0.54600
C1227       C  0.97891669  0.25183846  0.05627118     0.08600
C1228       C  0.01519683  0.23092606  0.03519403     0.19500
C1229       C  0.01505728  0.28816019  0.98405101    -0.55300
C1230       C  0.03944319  0.26348642  0.01078030     0.08700
C1231       C  0.97202309  0.22744968  0.97238962    -0.54800
C1232       C  0.99634993  0.20536405  0.00084934     0.09300
H1233       H  0.92633572  0.29149784  0.04017597     0.13800
H1234       H  0.03500830  0.21254643  0.05740166    -0.00500
H1235       H  0.02880504  0.31019790  0.96139442     0.14100
H1236       H  0.95952786  0.21272560  0.94466917     0.13900
Zr1237     Zr  0.27692889  0.32442413  0.95600008     2.17500
O1238       O  0.32284865  0.37497010  0.92311665    -0.52200
O1239       O  0.25670333  0.39872241  0.96894945    -0.75400
O1240       O  0.25323840  0.31601177  0.87873671    -0.82100
O1241       O  0.35986443  0.26709840  0.03680574    -0.83900
O1242       O  0.18632219  0.29050516  0.87494056    -0.79500
O1243       O  0.35139607  0.30210086  0.97399412    -0.91100
O1244       O  0.23572847  0.40699870  0.03635359    -0.77100
O1245       O  0.20590471  0.33796117  0.97193808    -0.86600
O1246       O  0.27267674  0.33231130  0.03103701    -0.86300
O1247       O  0.24155189  0.26219307  0.93300920    -0.73000
O1248       O  0.29815170  0.26194204  0.99095132    -0.85200
Zr1249     Zr  0.18253501  0.21924830  0.05098856     2.26400
Zr1250     Zr  0.16984856  0.27734072  0.94711430     2.06300
Zr1251     Zr  0.29196218  0.26804852  0.06506900     2.10000
Zr1252     Zr  0.20103816  0.34333946  0.04708834     1.78800
O1253       O  0.32908092  0.21064935  0.09994364    -0.94000
O1254       O  0.14337524  0.38749278  0.02369751    -0.41800
O1255       O  0.22005921  0.27837654  0.07620470    -0.78400
O1256       O  0.16334822  0.28616937  0.02153565    -0.97100
O1257       O  0.19160918  0.21168601  0.97720607    -0.90400
O1258       O  0.25546285  0.20744761  0.04166940    -0.93300
C1259       C  0.24437377  0.42143712  0.00014139     1.00500
C1260       C  0.37412471  0.28247547  0.00244466     1.13400
C1261       C  0.22062718  0.30184828  0.85759814     1.04200
O1262       O  0.13195552  0.33571778  0.91510724    -0.95400
O1263       O  0.10011393  0.27270228  0.97139294    -0.91200
O1264       O  0.10635624  0.23495921  0.03284299    -0.84300
C1265       C  0.08460500  0.25600277  0.00461033     1.10800
O1266       O  0.30426550  0.19553535  0.90145928    -0.97400
Zr1267     Zr  0.26500793  0.20112503  0.96718905     1.88900
O1268       O  0.19791048  0.14408211  0.03290296    -0.74000
O1269       O  0.13266240  0.22164609  0.91059816    -0.53300
O1270       O  0.22724900  0.15617416  0.91840819    -0.98000
O1271       O  0.33818908  0.18137215  0.97524327    -0.55200
O1272       O  0.26104281  0.13639669  0.00144639    -0.74600
C1273       C  0.22797499  0.12146077  0.01762545     0.97800
O1274       O  0.14233186  0.16915654  0.09156233    -0.63400
O1275       O  0.33039744  0.32143584  0.10409271    -0.58200
O1276       O  0.20148713  0.23407687  0.12678400    -0.94900
O1277       O  0.26617578  0.26344887  0.13541337    -0.93300
O1278       O  0.22366269  0.36733849  0.11599507    -0.93600
O1279       O  0.14546427  0.34647723  0.09965653    -0.92400
C1280       C  0.23130561  0.24995391  0.14997046     1.16600
H1281       H  0.29077818  0.35483064  0.04009798     0.32600
H1282       H  0.13782656  0.29823065  0.03155085     0.43400
H1283       H  0.26484447  0.18388742  0.05859506     0.37000
H1284       H  0.24714866  0.25134282  0.90545899     0.33400
H1285       H  0.14474713  0.41241227  0.04194479     0.25200
H1286       H  0.11200205  0.23647728  0.89266235     0.31200
H1287       H  0.24082389  0.12839907  0.92066378     0.37100
H1288       H  0.24982689  0.35189021  0.12176153     0.31500
H1289       H  0.34970153  0.30538627  0.12250629     0.30400
H1290       H  0.34725030  0.22441543  0.12097787     0.32100
H1291       H  0.33864894  0.15055278  0.97156381     0.31100
H1292       H  0.14510152  0.31823706  0.11323836     0.35100
H1293       H  0.14193796  0.18206778  0.11962885     0.27800
H1294       H  0.32238988  0.36496131  0.89405118     0.32000
H1295       H  0.30828179  0.16508151  0.89726453     0.34900
H1296       H  0.34897249  0.33563165  0.08315869     0.27500
H1297       H  0.11351947  0.17095901  0.08044614     0.40400
H1298       H  0.11911487  0.35046114  0.93909510     0.30400
H1299       H  0.15180408  0.39825916  0.99544171     0.38000
H1300       H  0.34422810  0.18524755  0.00556242     0.29900
H1301       H  0.15334084  0.21055185  0.89040483     0.29900
H1302       H  0.35113360  0.36843043  0.93376863     0.30200
Zr1303     Zr  0.27436037  0.96869660  0.30243575     2.17500
O1304       O  0.29903010  0.91726421  0.35398194    -0.52200
O1305       O  0.34978846  0.98468933  0.28815215    -0.75400
O1306       O  0.27131373  0.89359126  0.27647040    -0.82100
O1307       O  0.22878127  0.05914558  0.38166031    -0.83900
O1308       O  0.25033504  0.88767844  0.20816926    -0.79500
O1309       O  0.25965297  0.99538666  0.37603162    -0.91100
O1310       O  0.35801144  0.05076623  0.26161424    -0.77100
O1311       O  0.29082289  0.98287799  0.23023421    -0.86600
O1312       O  0.28274847  0.04277142  0.29418424    -0.86300
O1313       O  0.21405076  0.94425248  0.26417886    -0.73000
O1314       O  0.21024446  0.00059067  0.32347076    -0.85200
Zr1315     Zr  0.17528637  0.06133791  0.20090684     2.26400
Zr1316     Zr  0.23193445  0.95787013  0.19165767     2.06300
Zr1317     Zr  0.21770255  0.07420165  0.31149267     2.10000
Zr1318     Zr  0.29748898  0.05729248  0.22142201     1.78800
O1319       O  0.15661748  0.09596594  0.35149494    -0.94000
O1320       O  0.34811332  0.03134959  0.17065474    -0.41800
O1321       O  0.23297306  0.08570910  0.23957594    -0.78400
O1322       O  0.24131745  0.03184924  0.18058620    -0.97100
O1323       O  0.16712333  0.98776078  0.21173661    -0.90400
O1324       O  0.15820230  0.05064485  0.27358151    -0.93300
C1325       C  0.37245643  0.01613248  0.27436405     1.00500
C1326       C  0.24419957  0.02640845  0.39757215     1.13400
C1327       C  0.26034795  0.87167560  0.24360528     1.04200
O1328       O  0.29387285  0.93601222  0.15312871    -0.95400
O1329       O  0.21679841  0.97645643  0.12046256    -0.91200
O1330       O  0.18394573  0.03946782  0.12567623    -0.84300
C1331       C  0.20058188  0.00926476  0.10418144     1.10800
O1332       O  0.15059838  0.94038433  0.35325810    -0.97400
Zr1333     Zr  0.15165888  0.97662184  0.28495651     1.88900
O1334       O  0.10078156  0.04104062  0.21381335    -0.74000
O1335       O  0.17970407  0.91138582  0.16088978    -0.53300
O1336       O  0.12209925  0.90586589  0.28269143    -0.98000
O1337       O  0.09556352  0.00976008  0.32420902    -0.55200
O1338       O  0.09606351  0.97384312  0.23676701    -0.74600
C1339       C  0.07939421  0.00783105  0.22502845     0.97800
O1340       O  0.13943834  0.11676716  0.16420508    -0.63400
O1341       O  0.26793962  0.12444361  0.34057460    -0.58200
O1342       O  0.19581413  0.13582836  0.22188862    -0.94900
O1343       O  0.20809058  0.14421939  0.29186073    -0.93300
O1344       O  0.31626205  0.12868523  0.24128072    -0.93600
O1345       O  0.30727716  0.10512166  0.16128540    -0.92400
C1346       C  0.20556549  0.15859932  0.25466395     1.16600
H1347       H  0.30389700  0.05297115  0.31325974     0.32600
H1348       H  0.25126493  0.03961179  0.15280660     0.43400
H1349       H  0.13347939  0.06602004  0.28120326     0.37000
H1350       H  0.20501961  0.91577125  0.26978488     0.33400
H1351       H  0.37302148  0.04973390  0.17374735     0.25200
H1352       H  0.19585667  0.89110552  0.14414193     0.31200
H1353       H  0.09393962  0.90825663  0.29552667     0.37100
H1354       H  0.34687410  0.13090730  0.23668668     0.31500
H1355       H  0.25231348  0.13967049  0.36250810     0.30400
H1356       H  0.16704287  0.11861150  0.36988650     0.32100
H1357       H  0.10805799  0.01659172  0.35183545     0.31100
H1358       H  0.27950158  0.11800216  0.15684092     0.35100
H1359       H  0.14063736  0.10673033  0.13500196     0.27800
H1360       H  0.27717123  0.89504333  0.35428238     0.32000
H1361       H  0.17462756  0.92096682  0.35236765     0.34900
H1362       H  0.28886464  0.10795881  0.35659350     0.27500
H1363       H  0.10991888  0.11361712  0.17321234     0.40400
H1364       H  0.30069724  0.95996348  0.13395017     0.30400
H1365       H  0.35702708  0.00371820  0.18204134     0.38000
H1366       H  0.07538260  0.98671399  0.33051191     0.29900
H1367       H  0.16842554  0.89465301  0.18502086     0.29900
H1368       H  0.29594919  0.92995424  0.38199146     0.30200
Zr1369     Zr  0.92691717  0.31265236  0.29296157     2.17500
O1370       O  0.87388479  0.34369003  0.33675468    -0.52200
O1371       O  0.94067271  0.38862582  0.27480749    -0.75400
O1372       O  0.94990366  0.30757609  0.36904988    -0.82100
O1373       O  0.84590445  0.25304326  0.21894139    -0.83900
O1374       O  0.01620982  0.28288204  0.37589014    -0.79500
O1375       O  0.85365232  0.29394535  0.27670321    -0.91100
O1376       O  0.96559457  0.39964135  0.20858518    -0.77100
O1377       O  0.99736513  0.33058032  0.27812618    -0.86600
O1378       O  0.93022718  0.32054364  0.21793622    -0.86300
O1379       O  0.96329687  0.25135667  0.31728377    -0.73000
O1380       O  0.90806869  0.24746838  0.26163476    -0.85200
Zr1381     Zr  0.02583302  0.21510516  0.20018028     2.26400
Zr1382     Zr  0.03469535  0.27086773  0.30434739     2.06300
Zr1383     Zr  0.91305602  0.25418259  0.18744705     2.10000
Zr1384     Zr  0.00172456  0.33684264  0.20261033     1.78800
O1385       O  0.87904292  0.19259177  0.15769602    -0.94000
O1386       O  0.05488671  0.38690663  0.22545026    -0.41800
O1387       O  0.98408265  0.27119573  0.17598458    -0.78400
O1388       O  0.04261082  0.28198798  0.22982351    -0.97100
O1389       O  0.01723907  0.20501203  0.27405522    -0.90400
O1390       O  0.95391546  0.19550462  0.21022187    -0.93300
C1391       C  0.95277044  0.41286897  0.24351470     1.00500
C1392       C  0.83152511  0.27198529  0.25080819     1.13400
C1393       C  0.98131397  0.29382990  0.39144962     1.04200
O1394       O  0.07347916  0.32915551  0.33474517    -0.95400
O1395       O  0.10493810  0.26518903  0.28207157    -0.91200
O1396       O  0.10067394  0.22927016  0.22051268    -0.84300
C1397       C  0.12137793  0.24927525  0.24951084     1.10800
O1398       O  0.87874750  0.17601749  0.32168918    -0.97400
Zr1399     Zr  0.94489504  0.18780000  0.28482255     1.88900
O1400       O  0.01545412  0.13929433  0.21858580    -0.74000
O1401       O  0.06738854  0.21423997  0.34459174    -0.53300
O1402       O  0.94923709  0.16053183  0.35698526    -0.98000
O1403       O  0.90060365  0.13347921  0.25386772    -0.55200
O1404       O  0.99694620  0.13615658  0.28683867    -0.74600
C1405       C  0.00564632  0.11842168  0.25274570     0.97800
O1406       O  0.07079872  0.18530077  0.14808592    -0.63400
O1407       O  0.87178102  0.30187951  0.14354871    -0.58200
O1408       O  0.00297343  0.23183557  0.12534829    -0.94900
O1409       O  0.93592595  0.25334254  0.11613059    -0.93300
O1410       O  0.97960906  0.35704097  0.13169102    -0.93600
O1411       O  0.05854259  0.34034389  0.15127788    -0.92400
C1412       C  0.97196289  0.24465140  0.10179107     1.16600
H1413       H  0.91122201  0.34190557  0.20794193     0.32600
H1414       H  0.06897195  0.29406226  0.22113946     0.43400
H1415       H  0.94699524  0.17065198  0.19455657     0.37000
H1416       H  0.95683063  0.24143881  0.34538172     0.33400
H1417       H  0.05275600  0.41092306  0.20535688     0.25200
H1418       H  0.08433705  0.22855617  0.36626534     0.31200
H1419       H  0.94274855  0.13014978  0.35489157     0.37100
H1420       H  0.95113618  0.34490119  0.12888385     0.31500
H1421       H  0.85287772  0.28338279  0.12734254     0.30400
H1422       H  0.85614200  0.20394653  0.14003256     0.32100
H1423       H  0.91879129  0.11651163  0.23561378     0.31100
H1424       H  0.05834393  0.31238512  0.13799512     0.35100
H1425       H  0.05130455  0.17214951  0.12796572     0.27800
H1426       H  0.89048228  0.35938528  0.35755837     0.32000
H1427       H  0.86960949  0.20435589  0.32998769     0.34900
H1428       H  0.85304365  0.31660899  0.16322405     0.27500
H1429       H  0.08077031  0.21099273  0.13302829     0.40400
H1430       H  0.08770389  0.34314472  0.31047223     0.30400
H1431       H  0.04440998  0.39790338  0.25250422     0.38000
H1432       H  0.88181614  0.14866637  0.23419891     0.29900
H1433       H  0.04410742  0.20074003  0.36060265     0.29900
H1434       H  0.86203064  0.31960435  0.35309761     0.30200
C1435       C  0.23805272  0.27565301  0.26904155     0.85700
C1436       C  0.24002606  0.22717097  0.27750691    -0.54600
C1437       C  0.21587470  0.20335910  0.24994424     0.08600
C1438       C  0.19219410  0.22840814  0.21788761     0.19500
C1439       C  0.24854806  0.28002142  0.22141964    -0.55300
C1440       C  0.22471414  0.25492324  0.19548073     0.08700
C1441       C  0.18983233  0.28246953  0.27085525    -0.54800
C1442       C  0.16660599  0.25695830  0.24472048     0.09300
H1443       H  0.25597842  0.21324655  0.30435954     0.13800
H1444       H  0.17298154  0.20868783  0.19657712    -0.00500
H1445       H  0.27334844  0.30050103  0.20944936     0.14100
H1446       H  0.17457031  0.30124983  0.29443092     0.13900
C1447       C  0.60050618  0.14165263  0.12901984    -0.03300
C1448       C  0.59999012  0.64255789  0.62419358    -0.03300
C1449       C  0.50701420  0.09588570  0.20278470    -0.21100
C1450       C  0.51729026  0.05314044  0.21029084    -0.07700
C1451       C  0.55555398  0.04035531  0.19132169     0.13200
C1452       C  0.57784564  0.06738279  0.16249742    -0.21200
C1453       C  0.56911208  0.11099682  0.15619505    -0.07700
C1454       C  0.53157004  0.12442508  0.17724205     0.13200
C1455       C  0.51727334  0.16955378  0.17582712    -0.24500
H1456       H  0.47999133  0.10832186  0.21863281     0.14500
H1457       H  0.60434087  0.05364758  0.14721328     0.14500
C1458       C  0.57639537  0.99942483  0.20278387    -0.24500
H1459       H  0.50306335  0.17717535  0.14488965     0.04700
H1460       H  0.54360745  0.19133067  0.18246034     0.07900
H1461       H  0.49278774  0.17558674  0.19984121     0.07900
H1462       H  0.57360354  0.97723523  0.17625742     0.07900
H1463       H  0.56379829  0.98484378  0.23212602     0.07900
H1464       H  0.61014120  0.00520357  0.20904129     0.04700
C1465       C  0.43241785  0.35489531  0.46360240    -0.21100
C1466       C  0.42485581  0.31115822  0.46769084    -0.07700
C1467       C  0.38559477  0.29793888  0.45030320     0.13200
C1468       C  0.36140565  0.32522287  0.42341757    -0.21200
C1469       C  0.37160973  0.36824437  0.41479015    -0.07700
C1470       C  0.40597984  0.38326510  0.44029827     0.13200
C1471       C  0.41600344  0.42925192  0.44454671    -0.24500
H1472       H  0.45888769  0.36782503  0.48032812     0.14500
H1473       H  0.33263522  0.31252201  0.41084778     0.14500
C1474       C  0.36603237  0.25601404  0.46142175    -0.24500
H1475       H  0.44116419  0.43487104  0.46795963     0.04700
H1476       H  0.38821142  0.44603630  0.45615282     0.07900
H1477       H  0.42776828  0.44267664  0.41456088     0.07900
H1478       H  0.38180833  0.23990397  0.48801229     0.07900
H1479       H  0.36596424  0.23560511  0.43335492     0.07900
H1480       H  0.33320590  0.26067393  0.47183937     0.04700
C1481       C  0.33301719  0.33122026  0.33055613    -0.21100
C1482       C  0.31540485  0.36689286  0.35062111    -0.07700
C1483       C  0.27225762  0.37386074  0.33843177     0.13200
C1484       C  0.24889899  0.34309083  0.31544822    -0.21200
C1485       C  0.26592874  0.30598050  0.29844871    -0.07700
C1486       C  0.30991971  0.30169219  0.30545453     0.13200
C1487       C  0.33374864  0.26604415  0.28629407    -0.24500
H1488       H  0.36594969  0.32570111  0.33490375     0.14500
H1489       H  0.21705251  0.35098010  0.30774630     0.14500
C1490       C  0.24877734  0.41460331  0.34330875    -0.24500
H1491       H  0.36784164  0.26856086  0.29262854     0.04700
H1492       H  0.32964249  0.26613420  0.25157499     0.07900
H1493       H  0.32301840  0.23560667  0.29994953     0.07900
H1494       H  0.26752616  0.44175014  0.35287257     0.07900
H1495       H  0.22234068  0.40982718  0.36572519     0.07900
H1496       H  0.23561296  0.42434524  0.31227221     0.04700
C1497       C  0.44427724  0.44266888  0.31456684    -0.21100
C1498       C  0.42680781  0.47557950  0.29004811    -0.07700
C1499       C  0.38209646  0.47540295  0.28878649     0.13200
C1500       C  0.35812561  0.44894340  0.31677722    -0.21200
C1501       C  0.37587208  0.41966458  0.34591816    -0.07700
C1502       C  0.42010746  0.41338408  0.33920248     0.13200
C1503       C  0.44410314  0.37469134  0.35244716    -0.24500
H1504       H  0.47741880  0.43683390  0.31187924     0.14500
H1505       H  0.32464462  0.45219747  0.31609200     0.14500
C1506       C  0.35763581  0.50184856  0.25784589    -0.24500
H1507       H  0.46070667  0.36215863  0.32455929     0.04700
H1508       H  0.42476225  0.34826008  0.36392859     0.07900
H1509       H  0.46799029  0.38295812  0.37638221     0.07900
H1510       H  0.37715956  0.51644847  0.23272984     0.07900
H1511       H  0.34066152  0.52666862  0.27496022     0.07900
H1512       H  0.33442883  0.48169506  0.24151098     0.04700
C1513       C  0.29126709  0.49853337  0.43423546    -0.21100
C1514       C  0.25686915  0.48129328  0.45704302    -0.07700
C1515       C  0.25272573  0.43656002  0.45358757     0.13200
C1516       C  0.28351895  0.41193688  0.43199146    -0.21200
C1517       C  0.31787702  0.42900964  0.40834191    -0.07700
C1518       C  0.32151658  0.47450637  0.41152096     0.13200
C1519       C  0.35718028  0.50155522  0.39471171    -0.24500
H1520       H  0.29546156  0.53215666  0.43366085     0.14500
H1521       H  0.27899611  0.37820069  0.43131861     0.14500
C1522       C  0.21459456  0.41374115  0.47072607    -0.24500
H1523       H  0.36929583  0.52167388  0.42037518     0.04700
H1524       H  0.34567761  0.52241265  0.36890350     0.07900
H1525       H  0.38462776  0.48484600  0.38370151     0.07900
H1526       H  0.18576818  0.42827112  0.45795409     0.07900
H1527       H  0.21386893  0.41397877  0.50556968     0.07900
H1528       H  0.21407788  0.38025204  0.46143900     0.04700
C1529       C  0.88146292  0.91722096  0.30297141    -0.21100
C1530       C  0.87653174  0.92455399  0.34697236    -0.07700
C1531       C  0.90448749  0.95641568  0.36294004     0.13200
C1532       C  0.93120962  0.98076066  0.33546354    -0.21200
C1533       C  0.93471431  0.97407123  0.29161279    -0.07700
C1534       C  0.91143119  0.93869165  0.27668739     0.13200
C1535       C  0.91901886  0.91988721  0.23397279    -0.24500
H1536       H  0.86470707  0.89148400  0.28885514     0.14500
H1537       H  0.95058029  0.00490293  0.34933129     0.14500
C1538       C  0.90734157  0.96736541  0.40895811    -0.24500
H1539       H  0.92400099  0.88554297  0.23775927     0.04700
H1540       H  0.94747800  0.93233785  0.21809729     0.07900
H1541       H  0.89134172  0.92496077  0.21346288     0.07900
H1542       H  0.88486446  0.95045732  0.42931956     0.07900
H1543       H  0.90133019  0.00138765  0.41281962     0.07900
H1544       H  0.93930325  0.96045026  0.42066889     0.04700
C1545       C  0.87402610  0.87187278  0.45171694    -0.21100
C1546       C  0.87605524  0.86978759  0.40700192    -0.07700
C1547       C  0.90847495  0.84197695  0.39239174     0.13200
C1548       C  0.93332756  0.81723979  0.42115426    -0.21200
C1549       C  0.93012926  0.81844295  0.46572610    -0.07700
C1550       C  0.89875945  0.84710764  0.48042775     0.13200
C1551       C  0.88873871  0.85238338  0.52636249    -0.24500
H1552       H  0.85267145  0.89366006  0.46550236     0.14500
H1553       H  0.95618292  0.79603722  0.40821544     0.14500
C1554       C  0.91751251  0.83618678  0.34613751    -0.24500
H1555       H  0.86154555  0.87320415  0.53148565     0.04700
H1556       H  0.91553482  0.86775778  0.54226288     0.07900
H1557       H  0.87990991  0.82156784  0.54079989     0.07900
H1558       H  0.88848547  0.83001985  0.32825352     0.07900
H1559       H  0.93827222  0.80901037  0.34066567     0.07900
H1560       H  0.93444342  0.86409599  0.33340367     0.04700
C1561       C  0.78191379  0.99624869  0.42598977    -0.21100
C1562       C  0.75745476  0.97830617  0.45909457    -0.07700
C1563       C  0.75639852  0.93316627  0.45889055     0.13200
C1564       C  0.78393528  0.90946084  0.43241876    -0.21200
C1565       C  0.81197780  0.92736791  0.40190141    -0.07700
C1566       C  0.80558693  0.97227838  0.39616901     0.13200
C1567       C  0.81732843  0.99689414  0.35666923    -0.24500
H1568       H  0.77998891  0.02985917  0.42079517     0.14500
H1569       H  0.78285762  0.87566099  0.43560124     0.14500
C1570       C  0.72526605  0.90783877  0.48466996    -0.24500
H1571       H  0.79026260  0.01607543  0.34620794     0.04700
H1572       H  0.82415386  0.97728688  0.32930888     0.07900
H1573       H  0.84367274  0.01878065  0.36310141     0.07900
H1574       H  0.69945673  0.92691088  0.49717774     0.07900
H1575       H  0.74158009  0.89134736  0.51092371     0.07900
H1576       H  0.71009943  0.88401823  0.46438924     0.04700
C1577       C  0.78949804  0.88302812  0.31521502    -0.21100
C1578       C  0.81436043  0.86569807  0.34849543    -0.07700
C1579       C  0.80643294  0.82124447  0.35556449     0.13200
C1580       C  0.78133941  0.79722137  0.32706688    -0.21200
C1581       C  0.76013302  0.81398722  0.29143957    -0.07700
C1582       C  0.76318172  0.85881979  0.28758699     0.13200
C1583       C  0.73776936  0.88244508  0.25510935    -0.24500
H1584       H  0.79092070  0.91663429  0.31022549     0.14500
H1585       H  0.77688055  0.76452064  0.33494127     0.14500
C1586       C  0.82044637  0.79710942  0.39442598    -0.24500
H1587       H  0.74197739  0.91695546  0.25778606     0.04700
H1588       H  0.70396554  0.87553214  0.25944749     0.07900
H1589       H  0.74753016  0.87422291  0.22282579     0.07900
H1590       H  0.81693810  0.81561327  0.42332700     0.07900
H1591       H  0.85261959  0.78544265  0.39026901     0.07900
H1592       H  0.80082296  0.76861499  0.40024420     0.04700
C1593       C  0.65902121  0.19949992  0.22580478    -0.21100
C1594       C  0.68510353  0.22973927  0.20543671    -0.07700
C1595       C  0.68684177  0.22633731  0.16061695     0.13200
C1596       C  0.66078967  0.19681372  0.13897067    -0.21200
C1597       C  0.63040884  0.16996084  0.15912454    -0.07700
C1598       C  0.63196747  0.17079962  0.20481323     0.13200
C1599       C  0.60772923  0.14164875  0.23446871    -0.24500
H1600       H  0.66058020  0.19639377  0.25952922     0.14500
H1601       H  0.66295817  0.19579182  0.10488981     0.14500
C1602       C  0.71653153  0.25321635  0.13458072    -0.24500
H1603       H  0.57485832  0.15143754  0.23691719     0.04700
H1604       H  0.61939092  0.14281797  0.26741053     0.07900
H1605       H  0.61076360  0.10838541  0.22613388     0.07900
H1606       H  0.74915822  0.24903226  0.14554812     0.07900
H1607       H  0.70782023  0.28668885  0.13634349     0.07900
H1608       H  0.71565872  0.24480779  0.10072347     0.04700
C1609       C  0.63993685  0.55851888  0.53884038    -0.21100
C1610       C  0.68418673  0.56039190  0.54071770    -0.07700
C1611       C  0.70024811  0.59496139  0.56429140     0.13200
C1612       C  0.67356442  0.61926864  0.59068137    -0.21200
C1613       C  0.62899402  0.61542145  0.59185276    -0.07700
C1614       C  0.61287134  0.58643346  0.56110555     0.13200
C1615       C  0.56715137  0.58509912  0.54919845    -0.24500
H1616       H  0.62597272  0.53613173  0.51762792     0.14500
H1617       H  0.68869076  0.64324758  0.60904956     0.14500
C1618       C  0.74502661  0.60993931  0.56055459    -0.24500
H1619       H  0.56026896  0.55995339  0.52628845     0.04700
H1620       H  0.55859245  0.61511797  0.53345937     0.07900
H1621       H  0.54657727  0.57907829  0.57666601     0.07900
H1622       H  0.76158673  0.59688855  0.53312146     0.07900
H1623       H  0.76214696  0.60243067  0.59011807     0.07900
H1624       H  0.74571355  0.64454010  0.55541195     0.04700
C1625       C  0.24881460  0.95657641  0.92121772    -0.21100
C1626       C  0.26432141  0.97754989  0.95706962    -0.07700
C1627       C  0.30850453  0.97336642  0.96355105     0.13200
C1628       C  0.33357768  0.94813122  0.93633724    -0.21200
C1629       C  0.31676968  0.92207103  0.90440429    -0.07700
C1630       C  0.27368478  0.93127599  0.89427041     0.13200
C1631       C  0.25149519  0.91864048  0.85421030    -0.24500
H1632       H  0.21657388  0.96030713  0.91241542     0.14500
H1633       H  0.36669845  0.94587725  0.94270718     0.14500
C1634       C  0.33028315  0.99431582  0.99994131    -0.24500
H1635       H  0.23540909  0.94639827  0.84035141     0.04700
H1636       H  0.22736537  0.89428738  0.86153590     0.07900
H1637       H  0.27186861  0.90805402  0.82867485     0.07900
H1638       H  0.31598134  0.98412575  0.03032055     0.07900
H1639       H  0.32899005  0.02890942  0.99665003     0.07900
H1640       H  0.36392674  0.98598832  0.00146177     0.04700
C1641       C  0.39799686  0.82626659  0.89695173    -0.21100
C1642       C  0.37130999  0.85698628  0.91482827    -0.07700
C1643       C  0.36907637  0.85440943  0.96047607     0.13200
C1644       C  0.39849872  0.83015639  0.98392926    -0.21200
C1645       C  0.42803805  0.80311076  0.96567627    -0.07700
C1646       C  0.42429467  0.79880934  0.92106584     0.13200
C1647       C  0.44661300  0.76448658  0.89796083    -0.24500
H1648       H  0.39906775  0.82412294  0.86292386     0.14500
H1649       H  0.39515623  0.82990701  0.01781111     0.14500
C1650       C  0.33449216  0.87128159  0.98792259    -0.24500
H1651       H  0.43671785  0.76310083  0.86443990     0.04700
H1652       H  0.43914608  0.73347530  0.91271860     0.07900
H1653       H  0.48081412  0.76982079  0.89774390     0.07900
H1654       H  0.34687483  0.89691980  0.00782630     0.07900
H1655       H  0.32260444  0.84583418  0.00931063     0.07900
H1656       H  0.30655598  0.88168460  0.97106320     0.04700
C1657       C  0.36295290  0.94393515  0.82246689    -0.21100
C1658       C  0.37963813  0.91715157  0.85451198    -0.07700
C1659       C  0.42438527  0.92289835  0.86016919     0.13200
C1660       C  0.44904632  0.94733832  0.83053159    -0.21200
C1661       C  0.43197531  0.97181035  0.79720607    -0.07700
C1662       C  0.38719962  0.97221931  0.79654798     0.13200
C1663       C  0.36267658  0.00356025  0.77067913    -0.24500
H1664       H  0.32950774  0.94462487  0.81857340     0.14500
H1665       H  0.48243840  0.94936273  0.83564199     0.14500
C1666       C  0.44784183  0.90885773  0.89915493    -0.24500
H1667       H  0.33969275  0.01930453  0.79134945     0.04700
H1668       H  0.34538912  0.98710153  0.74539352     0.07900
H1669       H  0.38217202  0.02898305  0.75662643     0.07900
H1670       H  0.46089438  0.87711880  0.89489169     0.07900
H1671       H  0.42851404  0.91096308  0.92795769     0.07900
H1672       H  0.47498805  0.92997363  0.90516998     0.04700
C1673       C  0.26310121  0.80372086  0.83977880    -0.21100
C1674       C  0.27195607  0.80069344  0.79638378    -0.07700
C1675       C  0.31025440  0.82060706  0.78319582     0.13200
C1676       C  0.33209058  0.84888911  0.81023421    -0.21200
C1677       C  0.32083742  0.85558633  0.85310866    -0.07700
C1678       C  0.28706808  0.82872552  0.86806449     0.13200
C1679       C  0.27479916  0.82507591  0.91385690    -0.24500
H1680       H  0.23722113  0.78525644  0.85233892     0.14500
H1681       H  0.36010260  0.86377247  0.79772281     0.14500
C1682       C  0.33184888  0.81024955  0.74237352    -0.24500
H1683       H  0.24875994  0.80225539  0.91920515     0.04700
H1684       H  0.26331145  0.85531631  0.92539965     0.07900
H1685       H  0.30128663  0.81311271  0.93272133     0.07900
H1686       H  0.33104730  0.83778394  0.72045373     0.07900
H1687       H  0.31842209  0.78224247  0.72702090     0.07900
H1688       H  0.36504791  0.80240619  0.74884543     0.04700
C1689       C  0.55357256  0.73070781  0.54399001    -0.21100
C1690       C  0.50957849  0.72468359  0.54532034    -0.07700
C1691       C  0.49636332  0.68773036  0.56803967     0.13200
C1692       C  0.52490160  0.66418583  0.59371237    -0.21200
C1693       C  0.56908150  0.67157698  0.59500494    -0.07700
C1694       C  0.58279891  0.70486229  0.56659585     0.13200
C1695       C  0.62821128  0.71565742  0.55892850    -0.24500
H1696       H  0.56599541  0.75568430  0.52390082     0.14500
H1697       H  0.51182041  0.63751215  0.61071945     0.14500
C1698       C  0.45309863  0.66914769  0.56340836    -0.24500
H1699       H  0.63581767  0.71140115  0.52507702     0.04700
H1700       H  0.64995882  0.69654217  0.57760176     0.07900
H1701       H  0.63409994  0.74898396  0.56710890     0.07900
H1702       H  0.43622229  0.68171036  0.53559608     0.07900
H1703       H  0.43468150  0.67415596  0.59260656     0.07900
H1704       H  0.45542621  0.63482348  0.55816994     0.04700
C1705       C  0.02665198  0.61150150  0.15642639    -0.21100
C1706       C  0.07047852  0.61740490  0.16222192    -0.07700
C1707       C  0.08621619  0.59642965  0.19972513     0.13200
C1708       C  0.05995646  0.56947392  0.22559161    -0.21200
C1709       C  0.01760324  0.56003948  0.21622084    -0.07700
C1710       C  0.00204271  0.58081472  0.17905448     0.13200
C1711       C  0.95994897  0.57055273  0.16003374    -0.24500
H1712       H  0.01084395  0.62903216  0.13204214     0.14500
H1713       H  0.07381577  0.55424273  0.25276000     0.14500
C1714       C  0.13158264  0.59987846  0.21266221    -0.24500
H1715       H  0.96413078  0.56330515  0.12612371     0.04700
H1716       H  0.93895036  0.59799489  0.16257421     0.07900
H1717       H  0.94443523  0.54263185  0.17432111     0.07900
H1718       H  0.15261236  0.59449452  0.18544457     0.07900
H1719       H  0.13972155  0.57625994  0.23739397     0.07900
H1720       H  0.13802788  0.63104029  0.22632249     0.04700
C1721       C  0.13878417  0.72828638  0.21518003    -0.21100
C1722       C  0.18293363  0.73080806  0.21073314    -0.07700
C1723       C  0.19894505  0.70698242  0.17624604     0.13200
C1724       C  0.17283878  0.67853725  0.15296282    -0.21200
C1725       C  0.12837632  0.67591650  0.15697324    -0.07700
C1726       C  0.11193906  0.70363528  0.18861168     0.13200
C1727       C  0.06567911  0.70928932  0.19583307    -0.24500
H1728       H  0.12407078  0.74747658  0.23871373     0.14500
H1729       H  0.18845133  0.65915688  0.13038189     0.14500
C1730       C  0.24355937  0.71151738  0.16111373    -0.24500
H1731       H  0.05721676  0.69789901  0.22805315     0.04700
H1732       H  0.04565859  0.69310043  0.17289038     0.07900
H1733       H  0.05806847  0.74318600  0.19298596     0.07900
H1734       H  0.26087156  0.68212093  0.16797212     0.07900
H1735       H  0.26037133  0.73842078  0.17503098     0.07900
H1736       H  0.24378964  0.71738906  0.12647415     0.04700
C1737       C  0.15329861  0.54616295  0.06836770    -0.21100
C1738       C  0.17932187  0.56527618  0.03734266    -0.07700
C1739       C  0.17596499  0.61005297  0.03504953     0.13200
C1740       C  0.15146666  0.63275727  0.06520058    -0.21200
C1741       C  0.12739663  0.61378036  0.09865491    -0.07700
C1742       C  0.12772391  0.56808506  0.09772666     0.13200
C1743       C  0.10102806  0.53910813  0.12521984    -0.24500
H1744       H  0.15091644  0.51256107  0.06912240     0.14500
H1745       H  0.15067355  0.66666498  0.06211327     0.14500
C1746       C  0.19679964  0.63490116  0.99984660    -0.24500
H1747       H  0.10149999  0.50599546  0.11474832     0.04700
H1748       H  0.06765991  0.54730867  0.12393339     0.07900
H1749       H  0.11353837  0.53742835  0.15753935     0.07900
H1750       H  0.18587721  0.62353749  0.96885861     0.07900
H1751       H  0.23123643  0.63250011  0.00172874     0.07900
H1752       H  0.18914869  0.66881117  0.00124641     0.04700
C1753       C  0.01724536  0.68484523  0.03885529    -0.21100
C1754       C  0.02166513  0.72922778  0.03826014    -0.07700
C1755       C  0.05617660  0.74420470  0.06247845     0.13200
C1756       C  0.07770788  0.71741564  0.09174602    -0.21200
C1757       C  0.07150102  0.67296674  0.09533264    -0.07700
C1758       C  0.04307143  0.65706360  0.06368803     0.13200
C1759       C  0.04155218  0.61122203  0.05189511    -0.24500
H1760       H  0.99493226  0.67121007  0.01728416     0.14500
H1761       H  0.10224724  0.73223862  0.10962800     0.14500
C1762       C  0.07448613  0.78752928  0.05591411    -0.24500
H1763       H  0.01728212  0.60492757  0.02773451     0.04700
H1764       H  0.03420713  0.59029128  0.07883202     0.07900
H1765       H  0.07176056  0.60210104  0.03770699     0.07900
H1766       H  0.06860560  0.80674314  0.08419771     0.07900
H1767       H  0.06243966  0.80344904  0.02722508     0.07900
H1768       H  0.10883263  0.78523334  0.05110213     0.04700
C1769       C  0.04860561  0.23788419  0.55444807    -0.21100
C1770       C  0.01250414  0.21929922  0.53598625    -0.07700
C1771       C  0.00974932  0.17479082  0.54300248     0.13200
C1772       C  0.03789803  0.15324980  0.57116777    -0.21200
C1773       C  0.07136197  0.17251358  0.59374911    -0.07700
C1774       C  0.07821070  0.21585013  0.58077840     0.13200
C1775       C  0.11774320  0.24051221  0.58932478    -0.24500
H1776       H  0.05530676  0.27049407  0.54658757     0.14500
H1777       H  0.03253540  0.12023188  0.57614220     0.14500
C1778       C  0.97847509  0.14808357  0.51995075    -0.24500
H1779       H  0.13023642  0.25365357  0.55910127     0.04700
H1780       H  0.14342149  0.22198447  0.60263881     0.07900
H1781       H  0.11073243  0.26704673  0.61044893     0.07900
H1782       H  0.97620618  0.15830973  0.48639404     0.07900
H1783       H  0.94770079  0.14911034  0.53601239     0.07900
H1784       H  0.98792790  0.11458312  0.52000822     0.04700
C1785       C  0.14350687  0.04582262  0.56162550    -0.21100
C1786       C  0.18099190  0.06179070  0.54320292    -0.07700
C1787       C  0.18847872  0.10546657  0.55071945     0.13200
C1788       C  0.16028818  0.12969789  0.57578460    -0.21200
C1789       C  0.12405767  0.11315947  0.59681214    -0.07700
C1790       C  0.11490684  0.06994086  0.58616011     0.13200
C1791       C  0.07470161  0.04637727  0.59639259    -0.24500
H1792       H  0.13455329  0.01376568  0.55592682     0.14500
H1793       H  0.16820510  0.16221037  0.58061243     0.14500
C1794       C  0.22656567  0.12775211  0.53271720    -0.24500
H1795       H  0.06124156  0.03384931  0.56680732     0.04700
H1796       H  0.04950620  0.06461547  0.61033385     0.07900
H1797       H  0.08156588  0.01940795  0.61786287     0.07900
H1798       H  0.22639550  0.12677535  0.49782265     0.07900
H1799       H  0.25557659  0.11336109  0.54500154     0.07900
H1800       H  0.22761398  0.16138418  0.54148216     0.04700
C1801       C  0.87808717  0.31611607  0.90456204    -0.21100
C1802       C  0.88288006  0.36064862  0.90276391    -0.07700
C1803       C  0.92083394  0.37490017  0.92326136     0.13200
C1804       C  0.94676787  0.34667479  0.94730709    -0.21200
C1805       C  0.93869098  0.30309582  0.95234195    -0.07700
C1806       C  0.90193457  0.28866503  0.93112632     0.13200
C1807       C  0.88443273  0.24493763  0.93773900    -0.24500
H1808       H  0.85470593  0.30110895  0.88579842     0.14500
H1809       H  0.97379730  0.35944225  0.96329608     0.14500
C1810       C  0.93573597  0.41996806  0.92095508    -0.24500
H1811       H  0.85014415  0.24413913  0.93207844     0.04700
H1812       H  0.88871835  0.23411776  0.97086420     0.07900
H1813       H  0.89870981  0.22310881  0.91505023     0.07900
H1814       H  0.96289871  0.42577443  0.94192585     0.07900
H1815       H  0.91087800  0.44132024  0.93112888     0.07900
H1816       H  0.94652793  0.42806201  0.88860678     0.04700
C1817       C  0.78386801  0.43857232  0.89470351    -0.21100
C1818       C  0.81793222  0.41565442  0.91227606    -0.07700
C1819       C  0.81916492  0.41652114  0.95806533     0.13200
C1820       C  0.79119513  0.44254197  0.98142815    -0.21200
C1821       C  0.75939858  0.46761180  0.96323689    -0.07700
C1822       C  0.75621912  0.46464089  0.91830037     0.13200
C1823       C  0.72441513  0.48972478  0.89362637    -0.24500
H1824       H  0.78016514  0.43811732  0.86077070     0.14500
H1825       H  0.79561573  0.44371618  0.01502038     0.14500
C1826       C  0.84844440  0.39059879  0.98521452    -0.24500
H1827       H  0.72828859  0.48597180  0.85906393     0.04700
H1828       H  0.72789743  0.52366723  0.90006885     0.07900
H1829       H  0.69224209  0.47902400  0.90130709     0.07900
H1830       H  0.83880817  0.39021663  0.01890997     0.07900
H1831       H  0.88012289  0.40450518  0.98501220     0.07900
H1832       H  0.84866842  0.35716444  0.97653427     0.04700
C1833       C  0.90047172  0.40556277  0.81674396    -0.21100
C1834       C  0.87514222  0.42328063  0.84902120    -0.07700
C1835       C  0.87944746  0.46875381  0.85138743     0.13200
C1836       C  0.90652966  0.49184938  0.82311850    -0.21200
C1837       C  0.93174966  0.47388004  0.79153603    -0.07700
C1838       C  0.92652574  0.42940802  0.78785554     0.13200
C1839       C  0.94744646  0.40604107  0.75273276    -0.24500
H1840       H  0.89919731  0.37176134  0.81347172     0.14500
H1841       H  0.90612659  0.52552880  0.82516905     0.14500
C1842       C  0.85733810  0.49614158  0.88292856    -0.24500
H1843       H  0.93738600  0.37256885  0.75227397     0.04700
H1844       H  0.98180747  0.40628021  0.75670360     0.07900
H1845       H  0.93912736  0.42027035  0.72173664     0.07900
H1846       H  0.85873930  0.48354246  0.91548253     0.07900
H1847       H  0.82498605  0.50225587  0.87236310     0.07900
H1848       H  0.87213989  0.52774240  0.88509165     0.04700
C1849       C  0.80976062  0.37203976  0.80687035    -0.21100
C1850       C  0.81563359  0.36291147  0.85068541    -0.07700
C1851       C  0.78694464  0.33056986  0.86618001     0.13200
C1852       C  0.76344970  0.30452099  0.83813590    -0.21200
C1853       C  0.76224867  0.31072165  0.79396604    -0.07700
C1854       C  0.78278374  0.34860207  0.77964374     0.13200
C1855       C  0.77246026  0.36940982  0.73796890    -0.24500
H1856       H  0.82389247  0.40006494  0.79334171     0.14500
H1857       H  0.74459617  0.27912902  0.85151276     0.14500
C1858       C  0.77902667  0.32138071  0.91224975    -0.24500
H1859       H  0.77267612  0.40414760  0.74090211     0.04700
H1860       H  0.74030791  0.36127723  0.72765297     0.07900
H1861       H  0.79618666  0.36127855  0.71389596     0.07900
H1862       H  0.79843186  0.34016399  0.93312581     0.07900
H1863       H  0.78547316  0.28783250  0.91952615     0.07900
H1864       H  0.74573656  0.32769448  0.91978816     0.04700
C1865       C  0.57458781  0.21830953  0.10378424    -0.21100
C1866       C  0.57188359  0.17360597  0.09961551    -0.07700
C1867       C  0.53917140  0.16122500  0.07078755     0.13200
C1868       C  0.51631728  0.19153433  0.04602833    -0.21200
C1869       C  0.52118292  0.23581439  0.04886222    -0.07700
C1870       C  0.55158808  0.24854776  0.07941411     0.13200
C1871       C  0.56125733  0.29393094  0.08805939    -0.24500
H1872       H  0.59346642  0.23126368  0.12840213     0.14500
H1873       H  0.49300639  0.17991429  0.02423052     0.14500
C1874       C  0.52487317  0.11624162  0.06582513    -0.24500
H1875       H  0.58613713  0.29791253  0.11211695     0.04700
H1876       H  0.53306242  0.30931166  0.10093342     0.07900
H1877       H  0.57340098  0.30956991  0.05893192     0.07900
H1878       H  0.49187754  0.11298108  0.07650725     0.07900
H1879       H  0.54369069  0.09318930  0.08357831     0.07900
H1880       H  0.52657366  0.10765445  0.03204153     0.04700
C1881       C  0.51665207  0.59777881  0.70947012    -0.21100
C1882       C  0.51621879  0.55370579  0.70401456    -0.07700
C1883       C  0.54401524  0.53931496  0.67205254     0.13200
C1884       C  0.57340499  0.56714705  0.65189165    -0.21200
C1885       C  0.57232505  0.61171639  0.65504133    -0.07700
C1886       C  0.54366859  0.62627449  0.68673509     0.13200
C1887       C  0.54139490  0.67184330  0.69890711    -0.24500
H1888       H  0.49514811  0.61063582  0.73217512     0.14500
H1889       H  0.59589588  0.55280942  0.63142559     0.14500
C1890       C  0.54089096  0.49597759  0.65394317    -0.24500
H1891       H  0.51553965  0.67758925  0.72150337     0.04700
H1892       H  0.53571085  0.69251464  0.67122739     0.07900
H1893       H  0.57060759  0.68113045  0.71515597     0.07900
H1894       H  0.51060165  0.48046499  0.66139098     0.07900
H1895       H  0.56752858  0.47658621  0.66497116     0.07900
H1896       H  0.54211164  0.49814948  0.61892153     0.04700
C1897       C  0.11323270  0.20700709  0.67958776    -0.21100
C1898       C  0.12859908  0.17034528  0.65945085    -0.07700
C1899       C  0.17049526  0.15946601  0.67323001     0.13200
C1900       C  0.19488982  0.18703081  0.69904046    -0.21200
C1901       C  0.18064508  0.22539989  0.71585482    -0.07700
C1902       C  0.13779767  0.23417155  0.70610218     0.13200
C1903       C  0.11674432  0.27238088  0.72360869    -0.24500
H1904       H  0.08142438  0.21592914  0.67327715     0.14500
H1905       H  0.22567656  0.17632181  0.70717479     0.14500
C1906       C  0.19238623  0.11833987  0.66514575    -0.24500
H1907       H  0.08351510  0.27437312  0.71364476     0.04700
H1908       H  0.13254253  0.30151815  0.71226402     0.07900
H1909       H  0.11698289  0.27112102  0.75854155     0.07900
H1910       H  0.22050189  0.12436877  0.64519584     0.07900
H1911       H  0.17379129  0.09357475  0.65059129     0.07900
H1912       H  0.20285778  0.10444577  0.69568052     0.04700
C1913       C  0.99977602  0.09820721  0.69688038    -0.21100
C1914       C  0.01531260  0.06097761  0.71635259    -0.07700
C1915       C  0.05889947  0.05413541  0.70896667     0.13200
C1916       C  0.08355725  0.08272815  0.68347451    -0.21200
C1917       C  0.06742945  0.11812508  0.66090093    -0.07700
C1918       C  0.02438703  0.12690014  0.67149554     0.13200
C1919       C  0.00211164  0.16726295  0.66044824    -0.24500
H1920       H  0.96771509  0.10679142  0.70192174     0.14500
H1921       H  0.11590575  0.07522021  0.67909448     0.14500
C1922       C  0.08049830  0.01578644  0.72669958    -0.24500
H1923       H  0.98780263  0.18017468  0.68941642     0.04700
H1924       H  0.97668807  0.16085733  0.63754246     0.07900
H1925       H  0.02221765  0.19267871  0.64814563     0.07900
H1926       H  0.06609571  0.98687850  0.71417722     0.07900
H1927       H  0.07909446  0.01513585  0.76157190     0.07900
H1928       H  0.11411071  0.01514783  0.71778224     0.04700
C1929       C  0.68694299  0.68314961  0.70680728    -0.21100
C1930       C  0.68235229  0.72743691  0.70709732    -0.07700
C1931       C  0.64592842  0.74224350  0.68552327     0.13200
C1932       C  0.62255696  0.71552395  0.65830613    -0.21200
C1933       C  0.62865363  0.67138568  0.65520323    -0.07700
C1934       C  0.65948248  0.65534555  0.68431961     0.13200
C1935       C  0.66243410  0.60899882  0.69481658    -0.24500
H1936       H  0.71137223  0.66975573  0.72631363     0.14500
H1937       H  0.59630557  0.72965435  0.64239048     0.14500
C1938       C  0.62616115  0.78389132  0.69490236    -0.24500
H1939       H  0.68846117  0.60229478  0.71701094     0.04700
H1940       H  0.66775194  0.58992356  0.66656264     0.07900
H1941       H  0.63328291  0.59819965  0.71078087     0.07900
H1942       H  0.59158453  0.78020935  0.69690211     0.07900
H1943       H  0.63345820  0.80699432  0.66927902     0.07900
H1944       H  0.63547175  0.79580935  0.72617628     0.04700
C1945       C  0.69082924  0.06190134  0.08885829    -0.21100
C1946       C  0.68008894  0.05344122  0.04658717    -0.07700
C1947       C  0.64297787  0.07404772  0.03241204     0.13200
C1948       C  0.62375783  0.10609600  0.05663550    -0.21200
C1949       C  0.63193811  0.11310844  0.10007505    -0.07700
C1950       C  0.66797249  0.08988568  0.11545064     0.13200
C1951       C  0.68436910  0.09362692  0.15987109    -0.24500
H1952       H  0.71788007  0.04599795  0.10168646     0.14500
H1953       H  0.60031463  0.12396283  0.04057415     0.14500
C1954       C  0.61842805  0.05969091  0.99462995    -0.24500
H1955       H  0.70987504  0.07105510  0.16663716     0.04700
H1956       H  0.65958494  0.08649788  0.18311294     0.07900
H1957       H  0.69803298  0.12520024  0.16485139     0.07900
H1958       H  0.62866268  0.02874326  0.98317979     0.07900
H1959       H  0.62005497  0.08384259  0.96900279     0.07900
H1960       H  0.58507736  0.05509224  0.00373461     0.04700
loop_ 
_geom_bond_atom_site_label_1 
_geom_bond_atom_site_label_2 
_geom_bond_distance 
_geom_bond_site_symmetry_2 
_ccdc_geom_bond_type 
C1            C2   1.545   1_554  S
C1            C7   1.549       .  S
C1            C5   1.566   1_545  S
C1         C1946   1.608       .  S
C2            H9   1.082       .  S
C2            C3   1.374       .  D
C3            C4   1.501   1_545  S
C3          C726   1.459       .  S
C4            C8   1.504   1_566  S
C4            C6   1.495       .  S
C4           H10   1.111       .  S
C5           H11   1.085       .  S
C5            C6   1.399   1_554  D
C6          C163   1.489   1_556  S
C7           H12   1.085       .  S
C7            C8   1.383       .  D
C8         C1190   1.449       .  S
C13          C14   1.546       .  S
C13          C19   1.555       .  S
C13          C17   1.561       .  S
C13        C1930   1.604       .  S
C14          H21   1.086       .  S
C14          C15   1.380       .  D
C15          C16   1.504       .  S
C15         C162   1.467       .  S
C16          C20   1.507       .  S
C16          C18   1.499       .  S
C16          H22   1.111       .  S
C17          H23   1.081       .  S
C17          C18   1.386       .  D
C18         C711   1.476       .  S
C19          H24   1.086       .  S
C19          C20   1.389       .  D
C20         C467   1.462       .  S
C25          C26   1.549   1_545  S
C25          C31   1.559   1_655  S
C25          C29   1.557       .  S
C25        C1914   1.614   1_655  S
C26          H33   1.085       .  S
C26          C27   1.383       .  D
C27          C28   1.507       .  S
C27         C460   1.461       .  S
C28          C32   1.506       .  S
C28          C30   1.503   1_565  S
C28          H34   1.111       .  S
C29          H35   1.079       .  S
C29          C30   1.382       .  D
C30         C719   1.470       .  S
C31          H36   1.085       .  S
C31          C32   1.389   1_445  D
C32        C1175   1.477       .  S
C37          C38   1.564       .  S
C37          C43   1.553       .  S
C37          C41   1.568       .  S
C37        C1901   1.623       .  S
C38          H45   1.080       .  S
C38          C39   1.380       .  D
C39          C40   1.502       .  S
C39          C72   1.469       .  S
C40          C44   1.511       .  S
C40          C42   1.504       .  S
C40          H46   1.111       .  S
C41          H47   1.085       .  S
C41          C42   1.395       .  D
C42        C1261   1.501       .  S
C43          H48   1.085       .  S
C43          C44   1.383       .  D
C44         C382   1.462       .  S
Zr49         O50   2.398       .  S
Zr49         O51   2.522       .  S
Zr49         O52   2.495       .  S
Zr49         O55   2.503       .  S
Zr49         O57   2.358       .  S
Zr49         O58   2.391       .  S
Zr49         O59   2.399       .  S
Zr49         O60   2.379       .  S
O50         H106   0.988       .  S
O50         H114   0.991       .  S
O51          C71   1.302       .  A
O52          C73   1.299       .  A
O53         Zr63   2.376       .  S
O53          C72   1.274       .  A
O54         Zr62   2.372       .  S
O54          C73   1.272       .  A
O55          C72   1.301       .  A
O56         Zr64   2.348       .  S
O56          C71   1.259       .  A
O57         Zr62   2.374       .  S
O57         Zr64   2.394       .  S
O58         Zr63   2.401       .  S
O58         Zr64   2.384       .  S
O58          H93   0.965       .  S
O59         Zr62   2.392       .  S
O59         Zr79   2.339       .  S
O59          H96   0.961       .  S
O60         Zr63   2.352       .  S
O60         Zr79   2.346       .  S
Zr61         O86   2.412       .  S
Zr61         O80   2.488       .  S
Zr61         O88   2.525       .  S
Zr61         O76   2.536       .  S
Zr61         O67   2.374       .  S
Zr61         O68   2.391       .  S
Zr61         O69   2.372       .  S
Zr61         O70   2.399       .  S
Zr62         O81   2.435       .  S
Zr62         O74   2.436       .  S
Zr62         O75   2.343       .  S
Zr62         O68   2.406       .  S
Zr62         O69   2.377       .  S
Zr63         O65   2.436       .  S
Zr63         O87   2.438       .  S
Zr63         O89   2.364       .  S
Zr63         O67   2.367       .  S
Zr63         O70   2.389       .  S
Zr64         O90   2.439       .  S
Zr64         O91   2.438       .  S
Zr64         O66   2.441       .  S
Zr64         O67   2.348       .  S
Zr64         O68   2.347       .  S
O65         H102   0.990       .  S
O66          H97   0.990       .  S
O66         H111   0.991       .  S
O68          H94   0.960       .  S
O69         Zr79   2.396       .  S
O70         Zr79   2.385       .  S
O70          H95   0.965       .  S
C71         C120   1.478       .  S
C73         C134   1.460       .  S
O74         H110   0.990       .  S
O75          C77   1.267       .  A
O76          C77   1.307       .  A
C77         C756   1.465       .  S
O78         Zr79   2.434       .  S
O78         H107   0.990       .  S
Zr79         O82   2.440       .  S
Zr79         O83   2.443       .  S
Zr79         O84   2.332       .  S
O80          C85   1.295       .  A
O81          H98   0.990       .  S
O81         H113   0.990       .  S
O82          H99   0.991       .  S
O83         H103   0.989       .  S
O83         H112   0.990       .  S
O84          C85   1.257       .  A
C85         C571   1.460       .  S
O86         H105   0.990       .  S
O86         H109   0.988       .  S
O87         H101   0.990       .  S
O87         H108   0.990       .  S
O88          C92   1.308       .  A
O89          C92   1.271       .  A
O90         H100   0.989       .  S
O91         H104   0.990       .  S
C92         C962   1.472       .  S
C115        C116   1.551       .  S
C115        C121   1.558       .  S
C115        C119   1.562       .  S
C115       C1882   1.602       .  S
C116        H123   1.085       .  S
C116        C117   1.375       .  D
C117        C118   1.506       .  S
C117        C898   1.453       .  S
C118        C122   1.499       .  S
C118        C120   1.501       .  S
C118        H124   1.111       .  S
C119        H125   1.082       .  S
C119        C120   1.385       .  D
C121        H126   1.086       .  S
C121        C122   1.388       .  D
C122        C380   1.473       .  S
C127        C128   1.575       .  S
C127        C133   1.549   1_554  S
C127        C131   1.550       .  S
C127       C1869   1.618       .  S
C128        H135   1.071       .  S
C128        C129   1.392   1_554  D
C129        C130   1.480       .  S
C129        C899   1.466       .  S
C130        C134   1.506       .  S
C130        C132   1.498       .  S
C130        H136   1.111       .  S
C131        H137   1.086       .  S
C131        C132   1.384   1_554  D
C132       C1260   1.467   1_556  S
C133        H138   1.086       .  S
C133        C134   1.381       .  D
Zr139       O140   2.401       .  S
Zr139       O141   2.518       .  S
Zr139       O142   2.588       .  S
Zr139       O145   2.525       .  S
Zr139       O147   2.368   1_556  S
Zr139       O148   2.394       .  S
Zr139       O149   2.395       .  S
Zr139       O150   2.374       .  S
O140        H196   0.985       .  S
O140        H204   0.986       .  S
O141        C161   1.303       .  A
O142        C163   1.320   1_556  A
O143       Zr153   2.384       .  S
O143        C162   1.275       .  A
O144       Zr152   2.352       .  S
O144        C163   1.267       .  A
O145        C162   1.306       .  A
O146       Zr154   2.328   1_556  S
O146        C161   1.261       .  A
O147       Zr152   2.388       .  S
O147       Zr154   2.398       .  S
O148       Zr153   2.378       .  S
O148       Zr154   2.390   1_556  S
O148        H183   0.963       .  S
O149       Zr152   2.389   1_556  S
O149       Zr169   2.343       .  S
O149        H186   0.959       .  S
O150       Zr153   2.356       .  S
O150       Zr169   2.339       .  S
Zr151       O176   2.386       .  S
Zr151       O170   2.520       .  S
Zr151       O178   2.514       .  S
Zr151       O166   2.571       .  S
Zr151       O157   2.372       .  S
Zr151       O158   2.395       .  S
Zr151       O159   2.365       .  S
Zr151       O160   2.396   1_554  S
Zr152       O171   2.436       .  S
Zr152       O164   2.436       .  S
Zr152       O165   2.356       .  S
Zr152       O158   2.388       .  S
Zr152       O159   2.389       .  S
Zr153       O155   2.438       .  S
Zr153       O177   2.441       .  S
Zr153       O179   2.379       .  S
Zr153       O157   2.363   1_556  S
Zr153       O160   2.387       .  S
Zr154       O180   2.437       .  S
Zr154       O181   2.436       .  S
Zr154       O156   2.440       .  S
Zr154       O157   2.338       .  S
Zr154       O158   2.347       .  S
O155        H192   0.990       .  S
O156        H187   0.990       .  S
O156        H201   0.990       .  S
O158        H184   0.960       .  S
O159       Zr169   2.396   1_554  S
O160       Zr169   2.386       .  S
O160        H185   0.966       .  S
C161        C245   1.468       .  S
O164        H200   0.990       .  S
O165        C167   1.269       .  A
O166        C167   1.315       .  A
C167        C859   1.488       .  S
O168       Zr169   2.442       .  S
O168        H197   0.990       .  S
Zr169       O172   2.439       .  S
Zr169       O173   2.439       .  S
Zr169       O174   2.327       .  S
O170        C175   1.304       .  A
O171        H188   0.990       .  S
O171        H203   0.990       .  S
O172        H189   0.990       .  S
O173        H193   0.990       .  S
O173        H202   0.990       .  S
O174        C175   1.261   1_556  A
C175        C583   1.472       .  S
O176        H195   0.989       .  S
O176        H199   0.987       .  S
O177        H191   0.990       .  S
O177        H198   0.990       .  S
O178        C182   1.304   1_554  A
O179        C182   1.273       .  A
O180        H190   0.990   1_554  S
O181        H194   0.990       .  S
C182        C220   1.469   1_556  S
C205       C1802   1.643       .  S
C205       C1818   1.632       .  S
C205       C1834   1.643       .  S
C205       C1850   1.650       .  S
C206        C207   1.562   1_655  S
C206        C212   1.555       .  S
C206        C210   1.564       .  S
C206       C1837   1.612       .  S
C207        H214   1.084       .  S
C207        C208   1.390       .  D
C208        C209   1.498       .  S
C208        C394   1.473       .  S
C209        C213   1.503   1_455  S
C209        C211   1.502   1_455  S
C209        H215   1.111       .  S
C210        H216   1.081       .  S
C210        C211   1.376       .  D
C211        C446   1.460   1_655  S
C212        H217   1.085       .  S
C212        C213   1.384       .  D
C213       C1080   1.476       .  S
C218        C219   1.550       .  S
C218        C224   1.546       .  S
C218        C222   1.566   1_556  S
C218       C1821   1.610       .  S
C219        H226   1.086       .  S
C219        C220   1.382   1_556  D
C220        C221   1.507       .  S
C221        C225   1.499       .  S
C221        C223   1.496       .  S
C221        H227   1.111       .  S
C222        H228   1.081       .  S
C222        C223   1.390       .  D
C223        C629   1.478       .  S
C224        H229   1.084       .  S
C224        C225   1.386   1_556  D
C225        C919   1.454       .  S
C230        C231   1.559       .  S
C230        C236   1.568   1_545  S
C230        C234   1.552       .  S
C230       C1786   1.614       .  S
C231        H238   1.085       .  S
C231        C232   1.387       .  D
C232        C233   1.494   1_545  S
C232       C1010   1.471   1_545  S
C233        C237   1.491       .  S
C233        C235   1.489   1_565  S
C233        H239   1.110       .  S
C234        H240   1.086       .  S
C234        C235   1.387       .  D
C235       C1326   1.461       .  S
C236        H241   1.080       .  S
C236        C237   1.383       .  D
C237        C314   1.455       .  S
C242       C1773   1.644       .  S
C242       C1789   1.632       .  S
C242       C1898   1.643       .  S
C242       C1917   1.633       .  S
C243        C244   1.553       .  S
C243        C249   1.558       .  S
C243        C247   1.557   1_654  S
C243       C1754   1.609   1_655  S
C244        H251   1.085       .  S
C244        C245   1.385   1_554  D
C245        C246   1.505       .  S
C246        C250   1.500   1_556  S
C246        C248   1.504       .  S
C246        H252   1.111       .  S
C247        H253   1.085       .  S
C247        C248   1.390   1_455  D
C248        C452   1.478       .  S
C249        H254   1.084       .  S
C249        C250   1.384       .  D
C250       C1183   1.463       .  S
C255        C256   1.562   1_554  S
C255        C261   1.551       .  S
C255        C259   1.561       .  S
C255       C1738   1.615       .  S
C256        H263   1.085       .  S
C256        C257   1.395       .  D
C257        C258   1.491       .  S
C257        C381   1.470       .  S
C258        C262   1.505       .  S
C258        C260   1.492       .  S
C258        H264   1.111       .  S
C259        H265   1.079       .  S
C259        C260   1.375   1_554  D
C260       C1259   1.462   1_556  S
C261        H266   1.085       .  S
C261        C262   1.385   1_554  D
C262        C900   1.457       .  S
C267        C268   1.561       .  S
C267        C273   1.569       .  S
C267        C271   1.554       .  S
C267       C1722   1.618       .  S
C268        H275   1.085       .  S
C268        C269   1.390       .  D
C269        C270   1.505       .  S
C269       C1327   1.487       .  S
C270        C274   1.502       .  S
C270        C272   1.511       .  S
C270        H276   1.109       .  S
C271        H277   1.085       .  S
C271        C272   1.379       .  D
C272        C526   1.467       .  S
C273        H278   1.084       .  S
C273        C274   1.392       .  D
C274        C316   1.483       .  S
C279       C1706   1.637       .  S
C279       C1725   1.643       .  S
C279       C1741   1.642       .  S
C279       C1757   1.646       .  S
C280        C281   1.565       .  S
C280        C286   1.563       .  S
C280        C284   1.547       .  S
C280       C1690   1.603       .  S
C281        H288   1.084       .  S
C281        C282   1.387       .  D
C282        C283   1.494       .  S
C282        C315   1.468       .  S
C283        C287   1.500       .  S
C283        C285   1.498       .  S
C283        H289   1.111       .  S
C284        H290   1.085       .  S
C284        C285   1.378       .  D
C285        C524   1.455       .  S
C286        H291   1.085       .  S
C286        C287   1.386       .  D
C287       C1003   1.472       .  S
Zr292       O293   2.404       .  S
Zr292       O294   2.463       .  S
Zr292       O295   2.527       .  S
Zr292       O298   2.547       .  S
Zr292       O300   2.374       .  S
Zr292       O301   2.399       .  S
Zr292       O302   2.398       .  S
Zr292       O303   2.358       .  S
O293        H349   0.990       .  S
O293        H357   0.989       .  S
O294        C314   1.291       .  A
O295        C316   1.309       .  A
O296       Zr306   2.335       .  S
O296        C315   1.263       .  A
O297       Zr305   2.364       .  S
O297        C316   1.268       .  A
O298        C315   1.312       .  A
O299       Zr307   2.341       .  S
O299        C314   1.257       .  A
O300       Zr305   2.375       .  S
O300       Zr307   2.389       .  S
O301       Zr306   2.382       .  S
O301       Zr307   2.384       .  S
O301        H336   0.966       .  S
O302       Zr305   2.396       .  S
O302       Zr322   2.360       .  S
O302        H339   0.963       .  S
O303       Zr306   2.377       .  S
O303       Zr322   2.347       .  S
Zr304       O329   2.412       .  S
Zr304       O323   2.544       .  S
Zr304       O331   2.513       .  S
Zr304       O319   2.533       .  S
Zr304       O310   2.389       .  S
Zr304       O311   2.405       .  S
Zr304       O312   2.375       .  S
Zr304       O313   2.381       .  S
Zr305       O324   2.435       .  S
Zr305       O317   2.436       .  S
Zr305       O318   2.362       .  S
Zr305       O311   2.396       .  S
Zr305       O312   2.390       .  S
Zr306       O308   2.438       .  S
Zr306       O330   2.444       .  S
Zr306       O332   2.344       .  S
Zr306       O310   2.356       .  S
Zr306       O313   2.386       .  S
Zr307       O333   2.441       .  S
Zr307       O334   2.436       .  S
Zr307       O309   2.441       .  S
Zr307       O310   2.356       .  S
Zr307       O311   2.344       .  S
O308        H345   0.990       .  S
O309        H340   0.990       .  S
O309        H354   0.990       .  S
O311        H337   0.959       .  S
O312       Zr322   2.398       .  S
O313       Zr322   2.403       .  S
O313        H338   0.965       .  S
O317        H353   0.990       .  S
O318        C320   1.269       .  A
O319        C320   1.308       .  A
C320        C847   1.472       .  S
O321       Zr322   2.444       .  S
O321        H350   0.990       .  S
Zr322       O325   2.440       .  S
Zr322       O326   2.441       .  S
Zr322       O327   2.330       .  S
O323        C328   1.308       .  A
O324        H341   0.990       .  S
O324        H356   0.990       .  S
O325        H342   0.990       .  S
O326        H346   0.990       .  S
O326        H355   0.990       .  S
O327        C328   1.259       .  A
C328        C866   1.482       .  S
O329        H348   0.991       .  S
O329        H352   0.986       .  S
O330        H344   0.991       .  S
O330        H351   0.990       .  S
O331        C335   1.303       .  A
O332        C335   1.266       .  A
O333        H343   0.990       .  S
O334        H347   0.990       .  S
C335        C492   1.461       .  S
Zr358       O359   2.408       .  S
Zr358       O360   2.511       .  S
Zr358       O361   2.485       .  S
Zr358       O364   2.575       .  S
Zr358       O366   2.375       .  S
Zr358       O367   2.383       .  S
Zr358       O368   2.412       .  S
Zr358       O369   2.346       .  S
O359        H415   0.990       .  S
O359        H423   0.990       .  S
O360        C380   1.302       .  A
O361        C382   1.297       .  A
O362       Zr372   2.340       .  S
O362        C381   1.265       .  A
O363       Zr371   2.368       .  S
O363        C382   1.270       .  A
O364        C381   1.320       .  A
O365       Zr373   2.340       .  S
O365        C380   1.259       .  A
O366       Zr371   2.382       .  S
O366       Zr373   2.387       .  S
O367       Zr372   2.399       .  S
O367       Zr373   2.401       .  S
O367        H402   0.965       .  S
O368       Zr371   2.399       .  S
O368       Zr388   2.364       .  S
O368        H405   0.963       .  S
O369       Zr372   2.342       .  S
O369       Zr388   2.337       .  S
Zr370       O395   2.425       .  S
Zr370       O389   2.511       .  S
Zr370       O397   2.547       .  S
Zr370       O385   2.472       .  S
Zr370       O376   2.345       .  S
Zr370       O377   2.413       .  S
Zr370       O378   2.372       .  S
Zr370       O379   2.389       .  S
Zr371       O390   2.437       .  S
Zr371       O383   2.434       .  S
Zr371       O384   2.368       .  S
Zr371       O377   2.397       .  S
Zr371       O378   2.370       .  S
Zr372       O374   2.438       .  S
Zr372       O396   2.441       .  S
Zr372       O398   2.331       .  S
Zr372       O376   2.343       .  S
Zr372       O379   2.397       .  S
Zr373       O399   2.441       .  S
Zr373       O400   2.437       .  S
Zr373       O375   2.439       .  S
Zr373       O376   2.332       .  S
Zr373       O377   2.365       .  S
O374        H411   0.990       .  S
O375        H406   0.991       .  S
O375        H420   0.990       .  S
O377        H403   0.963       .  S
O378       Zr388   2.386       .  S
O379       Zr388   2.401       .  S
O379        H404   0.965       .  S
O383        H419   0.990       .  S
O384        C386   1.271       .  A
O385        C386   1.294       .  A
C386        C869   1.460       .  S
O387       Zr388   2.438       .  S
O387        H416   0.990       .  S
Zr388       O391   2.438       .  S
Zr388       O392   2.443       .  S
Zr388       O393   2.344       .  S
O389        C394   1.303       .  A
O390        H407   0.990       .  S
O390        H422   0.990       .  S
O391        H408   0.991       .  S
O392        H412   0.989       .  S
O392        H421   0.990       .  S
O393        C394   1.260       .  A
O395        H414   0.991       .  S
O395        H418   0.986       .  S
O396        H410   0.990       .  S
O396        H417   0.990       .  S
O397        C401   1.312       .  A
O398        C401   1.264       .  A
O399        H409   0.990       .  S
O400        H413   0.990       .  S
C401        C497   1.460       .  S
Zr424       O425   2.410       .  S
Zr424       O426   2.456       .  S
Zr424       O427   2.491       .  S
Zr424       O430   2.556       .  S
Zr424       O432   2.380       .  S
Zr424       O433   2.407   1_455  S
Zr424       O434   2.407       .  S
Zr424       O435   2.343   1_455  S
O425        H481   0.986       .  S
O425        H489   0.990       .  S
O426        C446   1.286       .  A
O427        C448   1.300       .  A
O428       Zr438   2.364       .  S
O428        C447   1.272       .  A
O429       Zr437   2.355       .  S
O429        C448   1.267       .  A
O430        C447   1.313   1_455  A
O431       Zr439   2.354       .  S
O431        C446   1.261   1_655  A
O432       Zr437   2.385       .  S
O432       Zr439   2.392   1_455  S
O433       Zr438   2.377       .  S
O433       Zr439   2.388       .  S
O433        H468   0.966       .  S
O434       Zr437   2.388       .  S
O434       Zr454   2.362       .  S
O434        H471   0.964       .  S
O435       Zr438   2.345       .  S
O435       Zr454   2.326   1_655  S
Zr436       O461   2.407       .  S
Zr436       O455   2.491       .  S
Zr436       O463   2.516       .  S
Zr436       O451   2.529       .  S
Zr436       O442   2.385       .  S
Zr436       O443   2.407       .  S
Zr436       O444   2.370       .  S
Zr436       O445   2.382       .  S
Zr437       O456   2.438       .  S
Zr437       O449   2.435       .  S
Zr437       O450   2.366       .  S
Zr437       O443   2.392   1_455  S
Zr437       O444   2.380   1_455  S
Zr438       O440   2.438       .  S
Zr438       O462   2.442       .  S
Zr438       O464   2.347       .  S
Zr438       O442   2.370       .  S
Zr438       O445   2.388       .  S
Zr439       O465   2.438       .  S
Zr439       O466   2.437       .  S
Zr439       O441   2.437       .  S
Zr439       O442   2.360       .  S
Zr439       O443   2.352       .  S
O440        H477   0.990       .  S
O441        H472   0.990       .  S
O441        H486   0.990       .  S
O443        H469   0.962       .  S
O444       Zr454   2.391   1_655  S
O445       Zr454   2.395   1_655  S
O445        H470   0.965       .  S
C447        C845   1.472       .  S
C448        C495   1.462       .  S
O449        H485   0.990       .  S
O450        C452   1.269   1_455  A
O451        C452   1.309       .  A
O453       Zr454   2.440       .  S
O453        H482   0.990       .  S
Zr454       O457   2.435       .  S
Zr454       O458   2.441   1_455  S
Zr454       O459   2.333   1_455  S
O455        C460   1.296       .  A
O456        H473   0.990       .  S
O456        H488   0.990       .  S
O457        H474   0.989       .  S
O458        H478   0.990       .  S
O458        H487   0.990       .  S
O459        C460   1.261       .  A
O461        H480   0.988       .  S
O461        H484   0.989       .  S
O462        H476   0.990       .  S
O462        H483   0.990       .  S
O463        C467   1.305       .  A
O464        C467   1.267       .  A
O465        H475   0.990       .  S
O466        H479   0.991       .  S
C490        C491   1.547       .  S
C490        C496   1.550       .  S
C490        C494   1.558       .  S
C490       C1674   1.593       .  S
C491        H498   1.084       .  S
C491        C492   1.378       .  D
C492        C493   1.500       .  S
C493        C497   1.495       .  S
C493        C495   1.503       .  S
C493        H499   1.111       .  S
C494        H500   1.085       .  S
C494        C495   1.383       .  D
C496        H501   1.086       .  S
C496        C497   1.387       .  D
Zr502       O503   2.405       .  S
Zr502       O504   2.459       .  S
Zr502       O505   2.471       .  S
Zr502       O508   2.540       .  S
Zr502       O510   2.375       .  S
Zr502       O511   2.399       .  S
Zr502       O512   2.403       .  S
Zr502       O513   2.317       .  S
O503        H559   0.987       .  S
O503        H567   0.987       .  S
O504        C524   1.291       .  A
O505        C526   1.296       .  A
O506       Zr516   2.360       .  S
O506        C525   1.270       .  A
O507       Zr515   2.375       .  S
O507        C526   1.272       .  A
O508        C525   1.310       .  A
O509       Zr517   2.348       .  S
O509        C524   1.260       .  A
O510       Zr515   2.380       .  S
O510       Zr517   2.392       .  S
O511       Zr516   2.383       .  S
O511       Zr517   2.391       .  S
O511        H546   0.966       .  S
O512       Zr515   2.391       .  S
O512       Zr532   2.365       .  S
O512        H549   0.963       .  S
O513       Zr516   2.330       .  S
O513       Zr532   2.313       .  S
Zr514       O539   2.404       .  S
Zr514       O533   2.485       .  S
Zr514       O541   2.496       .  S
Zr514       O529   2.507       .  S
Zr514       O520   2.384       .  S
Zr514       O521   2.399       .  S
Zr514       O522   2.381       .  S
Zr514       O523   2.375       .  S
Zr515       O534   2.435       .  S
Zr515       O527   2.435       .  S
Zr515       O528   2.371       .  S
Zr515       O521   2.394       .  S
Zr515       O522   2.389       .  S
Zr516       O518   2.438       .  S
Zr516       O540   2.440       .  S
Zr516       O542   2.337       .  S
Zr516       O520   2.369       .  S
Zr516       O523   2.380       .  S
Zr517       O543   2.438       .  S
Zr517       O544   2.438       .  S
Zr517       O519   2.440       .  S
Zr517       O520   2.359       .  S
Zr517       O521   2.349       .  S
O518        H555   0.990       .  S
O519        H550   0.990       .  S
O519        H564   0.990       .  S
O521        H547   0.961       .  S
O522       Zr532   2.390       .  S
O523       Zr532   2.409       .  S
O523        H548   0.966       .  S
C525       C1035   1.460       .  S
O527        H563   0.990       .  S
O528        C530   1.272       .  A
O529        C530   1.302       .  A
C530        C949   1.471       .  S
O531       Zr532   2.443       .  S
O531        H560   0.990       .  S
Zr532       O535   2.437       .  S
Zr532       O536   2.439       .  S
Zr532       O537   2.319       .  S
O533        C538   1.296       .  A
O534        H551   0.990       .  S
O534        H566   0.990       .  S
O535        H552   0.990       .  S
O536        H556   0.990       .  S
O536        H565   0.990       .  S
O537        C538   1.258       .  A
C538        C588   1.449       .  S
O539        H558   0.988       .  S
O539        H562   0.990       .  S
O540        H554   0.990       .  S
O540        H561   0.990       .  S
O541        C545   1.299       .  A
O542        C545   1.266       .  A
O543        H553   0.990       .  S
O544        H557   0.990       .  S
C545        C854   1.454       .  S
C568       C1629   1.622       .  S
C568       C1642   1.622       .  S
C568       C1658   1.638       .  S
C568       C1677   1.624       .  S
C569        C570   1.551   1_565  S
C569        C575   1.567       .  S
C569        C573   1.556   1_565  S
C569       C1661   1.605       .  S
C570        H577   1.086       .  S
C570        C571   1.382       .  D
C571        C572   1.496       .  S
C572        C576   1.493       .  S
C572        C574   1.494       .  S
C572        H578   1.111       .  S
C573        H579   1.085   1_545  S
C573        C574   1.383       .  D
C574        C990   1.462       .  S
C575        H580   1.083       .  S
C575        C576   1.388   1_565  D
C576        C705   1.464       .  S
C581        C582   1.550       .  S
C581        C587   1.553   1_556  S
C581        C585   1.547   1_556  S
C581       C1645   1.593       .  S
C582        H589   1.084       .  S
C582        C583   1.386   1_556  D
C583        C584   1.506       .  S
C584        C588   1.498       .  S
C584        C586   1.505       .  S
C584        H590   1.111       .  S
C585        H591   1.086   1_554  S
C585        C586   1.382       .  D
C586        C904   1.462       .  S
C587        H592   1.082       .  S
C587        C588   1.378       .  D
C593        C594   1.564       .  S
C593        C599   1.547       .  S
C593        C597   1.559       .  S
C593       C1610   1.605       .  S
C594        H601   1.085       .  S
C594        C595   1.390       .  D
C595        C596   1.500       .  S
C595        C804   1.472       .  S
C596        C600   1.501       .  S
C596        C598   1.498       .  S
C596        H602   1.111       .  S
C597        H603   1.084       .  S
C597        C598   1.384       .  D
C598       C1100   1.465       .  S
C599        H604   1.086       .  S
C599        C600   1.381       .  D
C600        C648   1.464       .  S
Zr605       O606   2.402       .  S
Zr605       O607   2.509       .  S
Zr605       O608   2.552       .  S
Zr605       O611   2.516       .  S
Zr605       O613   2.369       .  S
Zr605       O614   2.395       .  S
Zr605       O615   2.406       .  S
Zr605       O616   2.390       .  S
O606        H662   0.986       .  S
O606        H670   0.984       .  S
O607        C627   1.300       .  A
O608        C629   1.310       .  A
O609       Zr619   2.376       .  S
O609        C628   1.273       .  A
O610       Zr618   2.341       .  S
O610        C629   1.265       .  A
O611        C628   1.302       .  A
O612       Zr620   2.328       .  S
O612        C627   1.263       .  A
O613       Zr618   2.383       .  S
O613       Zr620   2.399       .  S
O614       Zr619   2.374       .  S
O614       Zr620   2.386       .  S
O614        H649   0.966       .  S
O615       Zr618   2.376       .  S
O615       Zr635   2.351       .  S
O615        H652   0.962       .  S
O616       Zr619   2.363       .  S
O616       Zr635   2.356       .  S
Zr617       O642   2.418       .  S
Zr617       O636   2.487       .  S
Zr617       O644   2.504       .  S
Zr617       O632   2.564       .  S
Zr617       O623   2.390       .  S
Zr617       O624   2.394       .  S
Zr617       O625   2.368       .  S
Zr617       O626   2.397       .  S
Zr618       O637   2.436       .  S
Zr618       O630   2.436       .  S
Zr618       O631   2.326       .  S
Zr618       O624   2.387       .  S
Zr618       O625   2.384       .  S
Zr619       O621   2.437       .  S
Zr619       O643   2.439       .  S
Zr619       O645   2.352       .  S
Zr619       O623   2.383       .  S
Zr619       O626   2.378       .  S
Zr620       O646   2.439       .  S
Zr620       O647   2.441       .  S
Zr620       O622   2.439       .  S
Zr620       O623   2.347       .  S
Zr620       O624   2.343       .  S
O621        H658   0.990       .  S
O622        H653   0.990       .  S
O622        H667   0.990       .  S
O624        H650   0.962       .  S
O625       Zr635   2.392       .  S
O626       Zr635   2.377       .  S
O626        H651   0.966       .  S
C627        C947   1.470       .  S
C628        C857   1.472       .  S
O630        H666   0.990       .  S
O631        C633   1.262       .  A
O632        C633   1.313       .  A
C633        C676   1.477       .  S
O634       Zr635   2.439       .  S
O634        H663   0.990       .  S
Zr635       O638   2.440       .  S
Zr635       O639   2.438       .  S
Zr635       O640   2.346       .  S
O636        C641   1.298       .  A
O637        H654   0.990       .  S
O637        H669   0.990       .  S
O638        H655   0.990       .  S
O639        H659   0.990       .  S
O639        H668   0.990       .  S
O640        C641   1.266       .  A
C641       C1047   1.463       .  S
O642        H661   0.990       .  S
O642        H665   0.988       .  S
O643        H657   0.990       .  S
O643        H664   0.990       .  S
O644        C648   1.304       .  A
O645        C648   1.268       .  A
O646        H656   0.991       .  S
O647        H660   0.991       .  S
C671        C672   1.551       .  S
C671        C677   1.538       .  S
C671        C675   1.563       .  S
C671       C1594   1.600       .  S
C672        H679   1.080       .  S
C672        C673   1.374       .  D
C673        C674   1.501       .  S
C673        C797   1.466       .  S
C674        C678   1.509       .  S
C674        C676   1.504       .  S
C674        H680   1.111       .  S
C675        H681   1.084       .  S
C675        C676   1.397       .  D
C677        H682   1.086       .  S
C677        C678   1.375       .  D
C678       C1392   1.450       .  S
Zr683       O684   2.429       .  S
Zr683       O685   2.488       .  S
Zr683       O686   2.509       .  S
Zr683       O689   2.548       .  S
Zr683       O691   2.372   1_545  S
Zr683       O692   2.405       .  S
Zr683       O693   2.405       .  S
Zr683       O694   2.351       .  S
O684        H740   0.987       .  S
O684        H748   0.990       .  S
O685        C705   1.298       .  A
O686        C707   1.301       .  A
O687       Zr697   2.340       .  S
O687        C706   1.265       .  A
O688       Zr696   2.366       .  S
O688        C707   1.270   1_565  A
O689        C706   1.312       .  A
O690       Zr698   2.339       .  S
O690        C705   1.258   1_565  A
O691       Zr696   2.373       .  S
O691       Zr698   2.391       .  S
O692       Zr697   2.388       .  S
O692       Zr698   2.391   1_545  S
O692        H727   0.966       .  S
O693       Zr696   2.388   1_545  S
O693       Zr713   2.360       .  S
O693        H730   0.964       .  S
O694       Zr697   2.360       .  S
O694       Zr713   2.333       .  S
Zr695       O720   2.392       .  S
Zr695       O714   2.510       .  S
Zr695       O722   2.498       .  S
Zr695       O710   2.540       .  S
Zr695       O701   2.388   1_565  S
Zr695       O702   2.399       .  S
Zr695       O703   2.374       .  S
Zr695       O704   2.379   1_565  S
Zr696       O715   2.437       .  S
Zr696       O708   2.435       .  S
Zr696       O709   2.351       .  S
Zr696       O702   2.397       .  S
Zr696       O703   2.386       .  S
Zr697       O699   2.438       .  S
Zr697       O721   2.439       .  S
Zr697       O723   2.343       .  S
Zr697       O701   2.359       .  S
Zr697       O704   2.377       .  S
Zr698       O724   2.438   1_565  S
Zr698       O725   2.436       .  S
Zr698       O700   2.440       .  S
Zr698       O701   2.352   1_565  S
Zr698       O702   2.347       .  S
O699        H736   0.990       .  S
O700        H731   0.990       .  S
O700        H745   0.990       .  S
O702        H728   0.961       .  S
O703       Zr713   2.389   1_565  S
O704       Zr713   2.394       .  S
O704        H729   0.966       .  S
C706        C751   1.461       .  S
C707        C830   1.474       .  S
O708        H744   0.990       .  S
O709        C711   1.268       .  A
O710        C711   1.308       .  A
O712       Zr713   2.440       .  S
O712        H741   0.990       .  S
Zr713       O716   2.437       .  S
Zr713       O717   2.437       .  S
Zr713       O718   2.333       .  S
O714        C719   1.301   1_565  A
O715        H732   0.990       .  S
O715        H747   0.990       .  S
O716        H733   0.990       .  S
O717        H737   0.990       .  S
O717        H746   0.990       .  S
O718        C719   1.261       .  A
O720        H739   0.990       .  S
O720        H743   0.985       .  S
O721        H735   0.990       .  S
O721        H742   0.990       .  S
O722        C726   1.299   1_565  A
O723        C726   1.268       .  A
O724        H734   0.990   1_545  S
O725        H738   0.990       .  S
C749        C750   1.563       .  S
C749        C755   1.549       .  S
C749        C753   1.555       .  S
C749       C1853   1.607       .  S
C750        H757   1.086       .  S
C750        C751   1.393       .  D
C751        C752   1.498       .  S
C752        C756   1.496       .  S
C752        C754   1.495       .  S
C752        H758   1.111       .  S
C753        H759   1.080       .  S
C753        C754   1.379       .  D
C754        C783   1.466       .  S
C755        H760   1.086       .  S
C755        C756   1.384       .  D
Zr761       O762   2.429       .  S
Zr761       O763   2.500       .  S
Zr761       O764   2.537       .  S
Zr761       O767   2.539       .  S
Zr761       O769   2.379       .  S
Zr761       O770   2.398       .  S
Zr761       O771   2.404       .  S
Zr761       O772   2.390       .  S
O762        H818   0.990       .  S
O762        H826   0.987       .  S
O763        C783   1.298       .  A
O764        C785   1.308       .  A
O765       Zr775   2.349       .  S
O765        C784   1.265       .  A
O766       Zr774   2.358       .  S
O766        C785   1.267       .  A
O767        C784   1.308       .  A
O768       Zr776   2.336       .  S
O768        C783   1.260       .  A
O769       Zr774   2.381       .  S
O769       Zr776   2.393       .  S
O770       Zr775   2.385       .  S
O770       Zr776   2.385       .  S
O770        H805   0.965       .  S
O771       Zr774   2.390       .  S
O771       Zr791   2.354       .  S
O771        H808   0.963       .  S
O772       Zr775   2.380       .  S
O772       Zr791   2.360       .  S
Zr773       O798   2.413       .  S
Zr773       O792   2.492       .  S
Zr773       O800   2.525       .  S
Zr773       O788   2.572       .  S
Zr773       O779   2.390       .  S
Zr773       O780   2.395       .  S
Zr773       O781   2.377       .  S
Zr773       O782   2.398       .  S
Zr774       O793   2.436       .  S
Zr774       O786   2.435       .  S
Zr774       O787   2.363       .  S
Zr774       O780   2.395       .  S
Zr774       O781   2.381       .  S
Zr775       O777   2.439       .  S
Zr775       O799   2.444       .  S
Zr775       O801   2.342       .  S
Zr775       O779   2.378       .  S
Zr775       O782   2.384       .  S
Zr776       O802   2.438       .  S
Zr776       O803   2.438       .  S
Zr776       O778   2.440       .  S
Zr776       O779   2.353       .  S
Zr776       O780   2.355       .  S
O777        H814   0.990       .  S
O778        H809   0.990       .  S
O778        H823   0.990       .  S
O780        H806   0.962       .  S
O781       Zr791   2.396       .  S
O782       Zr791   2.383       .  S
O782        H807   0.966       .  S
C784        C957   1.477       .  S
C785        C835   1.483       .  S
O786        H822   0.990       .  S
O787        C789   1.268       .  A
O788        C789   1.315       .  A
C789       C1130   1.499       .  S
O790       Zr791   2.442       .  S
O790        H819   0.991       .  S
Zr791       O794   2.439       .  S
Zr791       O795   2.440       .  S
Zr791       O796   2.338       .  S
O792        C797   1.297       .  A
O793        H810   0.990       .  S
O793        H825   0.990       .  S
O794        H811   0.990       .  S
O795        H815   0.990       .  S
O795        H824   0.989       .  S
O796        C797   1.265       .  A
O798        H817   0.991       .  S
O798        H821   0.986       .  S
O799        H813   0.990       .  S
O799        H820   0.990       .  S
O800        C804   1.308       .  A
O801        C804   1.264       .  A
O802        H812   0.989       .  S
O803        H816   0.991       .  S
C827       C1530   1.623       .  S
C827       C1546   1.642       .  S
C827       C1565   1.654       .  S
C827       C1578   1.644       .  S
C828        C829   1.556   1_545  S
C828        C834   1.568       .  S
C828        C832   1.554       .  S
C828       C1562   1.620   1_545  S
C829        H836   1.085       .  S
C829        C830   1.383   1_565  D
C830        C831   1.509       .  S
C831        C835   1.503       .  S
C831        C833   1.503       .  S
C831        H837   1.109       .  S
C832        H838   1.086       .  S
C832        C833   1.388       .  D
C833        C991   1.475       .  S
C834        H839   1.084       .  S
C834        C835   1.393       .  D
C840        C841   1.550       .  S
C840        C846   1.564   1_655  S
C840        C844   1.567       .  S
C840       C1549   1.625       .  S
C841        H848   1.086       .  S
C841        C842   1.383       .  D
C842        C843   1.504   1_655  S
C842       C1079   1.456       .  S
C843        C847   1.498       .  S
C843        C845   1.489   1_455  S
C843        H849   1.111       .  S
C844        H850   1.070       .  S
C844        C845   1.384       .  D
C846        H851   1.085       .  S
C846        C847   1.391       .  D
C852        C853   1.543       .  S
C852        C858   1.565       .  S
C852        C856   1.560       .  S
C852       C1581   1.616       .  S
C853        H860   1.086       .  S
C853        C854   1.381       .  D
C854        C855   1.507       .  S
C855        C859   1.504       .  S
C855        C857   1.506       .  S
C855        H861   1.111       .  S
C856        H862   1.081       .  S
C856        C857   1.378       .  D
C858        H863   1.083       .  S
C858        C859   1.396       .  D
C864        C865   1.568       .  S
C864        C870   1.563       .  S
C864        C868   1.544       .  S
C864       C1514   1.620       .  S
C865        H872   1.081       .  S
C865        C866   1.389       .  D
C866        C867   1.500       .  S
C867        C871   1.500       .  S
C867        C869   1.513       .  S
C867        H873   1.110       .  S
C868        H874   1.085       .  S
C868        C869   1.378       .  D
C870        H875   1.085       .  S
C870        C871   1.395       .  D
C871       C1081   1.480       .  S
Zr876       O877   2.415       .  S
Zr876       O878   2.459       .  S
Zr876       O879   2.490       .  S
Zr876       O882   2.574       .  S
Zr876       O884   2.379       .  S
Zr876       O885   2.397       .  S
Zr876       O886   2.412   1_556  S
Zr876       O887   2.335   1_556  S
O877        H933   0.988       .  S
O877        H941   0.990       .  S
O878        C898   1.288       .  A
O879        C900   1.299       .  A
O880       Zr890   2.324       .  S
O880        C899   1.263       .  A
O881       Zr889   2.345   1_556  S
O881        C900   1.265       .  A
O882        C899   1.318       .  A
O883       Zr891   2.345       .  S
O883        C898   1.262       .  A
O884       Zr889   2.383   1_556  S
O884       Zr891   2.391       .  S
O885       Zr890   2.369       .  S
O885       Zr891   2.386       .  S
O885        H920   0.966       .  S
O886       Zr889   2.390       .  S
O886       Zr906   2.364       .  S
O886        H923   0.964       .  S
O887       Zr890   2.348   1_554  S
O887       Zr906   2.327       .  S
Zr888       O913   2.418       .  S
Zr888       O907   2.483       .  S
Zr888       O915   2.511       .  S
Zr888       O903   2.496       .  S
Zr888       O894   2.387   1_554  S
Zr888       O895   2.408   1_554  S
Zr888       O896   2.375       .  S
Zr888       O897   2.375       .  S
Zr889       O908   2.436       .  S
Zr889       O901   2.436   1_554  S
Zr889       O902   2.359       .  S
Zr889       O895   2.387   1_554  S
Zr889       O896   2.379       .  S
Zr890       O892   2.439   1_556  S
Zr890       O914   2.442       .  S
Zr890       O916   2.312       .  S
Zr890       O894   2.368       .  S
Zr890       O897   2.379   1_556  S
Zr891       O917   2.437       .  S
Zr891       O918   2.438       .  S
Zr891       O893   2.441       .  S
Zr891       O894   2.361       .  S
Zr891       O895   2.345       .  S
O892        H929   0.990       .  S
O893        H924   0.990       .  S
O893        H938   0.990       .  S
O895        H921   0.962       .  S
O896       Zr906   2.388       .  S
O897       Zr906   2.396       .  S
O897        H922   0.966       .  S
O901        H937   0.990       .  S
O902        C904   1.268       .  A
O903        C904   1.299       .  A
O905       Zr906   2.438       .  S
O905        H934   0.990       .  S
Zr906       O909   2.437       .  S
Zr906       O910   2.439       .  S
Zr906       O911   2.326       .  S
O907        C912   1.295       .  A
O908        H925   0.990       .  S
O908        H940   0.990       .  S
O909        H926   0.990       .  S
O910        H930   0.990       .  S
O910        H939   0.990       .  S
O911        C912   1.259       .  A
C912        C944   1.452       .  S
O913        H932   0.989       .  S
O913        H936   0.990       .  S
O914        H928   0.990       .  S
O914        H935   0.990       .  S
O915        C919   1.305       .  A
O916        C919   1.261   1_556  A
O917        H927   0.990       .  S
O918        H931   0.990       .  S
C942        C943   1.542       .  S
C942        C948   1.553       .  S
C942        C946   1.553       .  S
C942       C1498   1.592       .  S
C943        H950   1.086       .  S
C943        C944   1.380       .  D
C944        C945   1.504       .  S
C945        C949   1.510       .  S
C945        C947   1.507       .  S
C945        H951   1.111       .  S
C946        H952   1.083       .  S
C946        C947   1.381       .  D
C948        H953   1.085       .  S
C948        C949   1.385       .  D
C954       C1469   1.641       .  S
C954       C1482   1.646       .  S
C954       C1501   1.619       .  S
C954       C1517   1.640       .  S
C955        C956   1.565       .  S
C955        C961   1.551       .  S
C955        C959   1.559       .  S
C955       C1466   1.612       .  S
C956        H963   1.085       .  S
C956        C957   1.389       .  D
C957        C958   1.501       .  S
C958        C962   1.503       .  S
C958        C960   1.502       .  S
C958        H964   1.110       .  S
C959        H965   1.085       .  S
C959        C960   1.385       .  D
C960        C989   1.465       .  S
C961        H966   1.086       .  S
C961        C962   1.384       .  D
Zr967       O968   2.417       .  S
Zr967       O969   2.492       .  S
Zr967       O970   2.523       .  S
Zr967       O973   2.529       .  S
Zr967       O975   2.372       .  S
Zr967       O976   2.392       .  S
Zr967       O977   2.407       .  S
Zr967       O978   2.383       .  S
O968       H1024   0.989       .  S
O968       H1032   0.989       .  S
O969        C989   1.297       .  A
O970        C991   1.308       .  A
O971       Zr981   2.328       .  S
O971        C990   1.261       .  A
O972       Zr980   2.361       .  S
O972        C991   1.269       .  A
O973        C990   1.307       .  A
O974       Zr982   2.343       .  S
O974        C989   1.260       .  A
O975       Zr980   2.369       .  S
O975       Zr982   2.390       .  S
O976       Zr981   2.393       .  S
O976       Zr982   2.388       .  S
O976       H1011   0.966       .  S
O977       Zr980   2.391       .  S
O977       Zr997   2.354   1_545  S
O977       H1014   0.962   1_545  S
O978       Zr981   2.367       .  S
O978       Zr997   2.360   1_545  S
Zr979      O1004   2.421       .  S
Zr979       O998   2.495       .  S
Zr979      O1006   2.543       .  S
Zr979       O994   2.515       .  S
Zr979       O985   2.373   1_565  S
Zr979       O986   2.407   1_565  S
Zr979       O987   2.375       .  S
Zr979       O988   2.391       .  S
Zr980       O999   2.435   1_545  S
Zr980       O992   2.438       .  S
Zr980       O993   2.347       .  S
Zr980       O986   2.399       .  S
Zr980       O987   2.375   1_545  S
Zr981       O983   2.438   1_545  S
Zr981      O1005   2.444       .  S
Zr981      O1007   2.333       .  S
Zr981       O985   2.367       .  S
Zr981       O988   2.387   1_545  S
Zr982      O1008   2.437       .  S
Zr982      O1009   2.437       .  S
Zr982       O984   2.439       .  S
Zr982       O985   2.350       .  S
Zr982       O986   2.355       .  S
O983       H1020   0.990       .  S
O984       H1015   0.991       .  S
O984       H1029   0.990       .  S
O986       H1012   0.963       .  S
O987       Zr997   2.391       .  S
O988       Zr997   2.391       .  S
O988       H1013   0.965       .  S
O992       H1028   0.990       .  S
O993        C995   1.266   1_545  A
O994        C995   1.303       .  A
C995       C1040   1.466       .  S
O996       Zr997   2.443       .  S
O996       H1025   0.990       .  S
Zr997      O1000   2.440       .  S
Zr997      O1001   2.446       .  S
Zr997      O1002   2.351       .  S
O998       C1003   1.300       .  A
O999       H1016   0.990       .  S
O999       H1031   0.990       .  S
O1000      H1017   0.990       .  S
O1001      H1021   0.990       .  S
O1001      H1030   0.989       .  S
O1002      C1003   1.262       .  A
O1004      H1023   0.990       .  S
O1004      H1027   0.985       .  S
O1005      H1019   0.991       .  S
O1005      H1026   0.990       .  S
O1006      C1010   1.311       .  A
O1007      C1010   1.263   1_545  A
O1008      H1018   0.989       .  S
O1009      H1022   0.991       .  S
C1033      C1034   1.560   1_545  S
C1033      C1039   1.551       .  S
C1033      C1037   1.550       .  S
C1033      C1450   1.601       .  S
C1034      H1041   1.084       .  S
C1034      C1035   1.386       .  D
C1035      C1036   1.496       .  S
C1036      C1040   1.505       .  S
C1036      C1038   1.496   1_565  S
C1036      H1042   1.111       .  S
C1037      H1043   1.083       .  S
C1037      C1038   1.379       .  D
C1038      C1325   1.460       .  S
C1039      H1044   1.086       .  S
C1039      C1040   1.385   1_545  D
C1045      C1046   1.544       .  S
C1045      C1051   1.553       .  S
C1045      C1049   1.567   1_655  S
C1045      C1709   1.606   1_655  S
C1046      H1053   1.085       .  S
C1046      C1047   1.376       .  D
C1047      C1048   1.507       .  S
C1048      C1052   1.500       .  S
C1048      C1050   1.501       .  S
C1048      H1054   1.111       .  S
C1049      H1055   1.083       .  S
C1049      C1050   1.395   1_455  D
C1050      C1085   1.476       .  S
C1051      H1056   1.086       .  S
C1051      C1052   1.386       .  D
C1052      C1391   1.468       .  S
Zr1057     O1058   2.410       .  S
Zr1057     O1059   2.482   1_455  S
Zr1057     O1060   2.544       .  S
Zr1057     O1063   2.524   1_455  S
Zr1057     O1065   2.371       .  S
Zr1057     O1066   2.393   1_455  S
Zr1057     O1067   2.404       .  S
Zr1057     O1068   2.378   1_455  S
O1058      H1114   0.988       .  S
O1058      H1122   0.989       .  S
O1059      C1079   1.298       .  A
O1060      C1081   1.309       .  A
O1061     Zr1071   2.367       .  S
O1061      C1080   1.269       .  A
O1062     Zr1070   2.343       .  S
O1062      C1081   1.262       .  A
O1063      C1080   1.306       .  A
O1064     Zr1072   2.327       .  S
O1064      C1079   1.262       .  A
O1065     Zr1070   2.388       .  S
O1065     Zr1072   2.404   1_455  S
O1066     Zr1071   2.380       .  S
O1066     Zr1072   2.387       .  S
O1066      H1101   0.965       .  S
O1067     Zr1070   2.377       .  S
O1067     Zr1087   2.359   1_455  S
O1067      H1104   0.963       .  S
O1068     Zr1071   2.364       .  S
O1068     Zr1087   2.349       .  S
Zr1069     O1094   2.414       .  S
Zr1069     O1088   2.472       .  S
Zr1069     O1096   2.508       .  S
Zr1069     O1084   2.545       .  S
Zr1069     O1075   2.384       .  S
Zr1069     O1076   2.398       .  S
Zr1069     O1077   2.370       .  S
Zr1069     O1078   2.392       .  S
Zr1070     O1089   2.440       .  S
Zr1070     O1082   2.434       .  S
Zr1070     O1083   2.332       .  S
Zr1070     O1076   2.389   1_455  S
Zr1070     O1077   2.381   1_455  S
Zr1071     O1073   2.436       .  S
Zr1071     O1095   2.441       .  S
Zr1071     O1097   2.348       .  S
Zr1071     O1075   2.383       .  S
Zr1071     O1078   2.380       .  S
Zr1072     O1098   2.438       .  S
Zr1072     O1099   2.439       .  S
Zr1072     O1074   2.438       .  S
Zr1072     O1075   2.349       .  S
Zr1072     O1076   2.343       .  S
O1073      H1110   0.990       .  S
O1074      H1105   0.990       .  S
O1074      H1119   0.990       .  S
O1076      H1102   0.964       .  S
O1077     Zr1087   2.392       .  S
O1078     Zr1087   2.381       .  S
O1078      H1103   0.966       .  S
O1082      H1118   0.990       .  S
O1083      C1085   1.260   1_455  A
O1084      C1085   1.308       .  A
O1086     Zr1087   2.440   1_455  S
O1086      H1115   0.990       .  S
Zr1087     O1090   2.437   1_655  S
Zr1087     O1091   2.441       .  S
Zr1087     O1092   2.345       .  S
O1088      C1093   1.296       .  A
O1089      H1106   0.990       .  S
O1089      H1121   0.990       .  S
O1090      H1107   0.990       .  S
O1091      H1111   0.989       .  S
O1091      H1120   0.990       .  S
O1092      C1093   1.267       .  A
C1093      C1128   1.458       .  S
O1094      H1113   0.990       .  S
O1094      H1117   0.986       .  S
O1095      H1109   0.990       .  S
O1095      H1116   0.990       .  S
O1096      C1100   1.303       .  A
O1097      C1100   1.264       .  A
O1098      H1108   0.991       .  S
O1099      H1112   0.990       .  S
C1123      C1124   1.558       .  S
C1123      C1129   1.572       .  S
C1123      C1127   1.549       .  S
C1123      C1770   1.624   1_655  S
C1124      H1131   1.086   1_655  S
C1124      C1125   1.389       .  D
C1125      C1126   1.510       .  S
C1125      C1393   1.482       .  S
C1126      C1130   1.506       .  S
C1126      C1128   1.507       .  S
C1126      H1132   1.110       .  S
C1127      H1133   1.085       .  S
C1127      C1128   1.380       .  D
C1129      H1134   1.078       .  S
C1129      C1130   1.395       .  D
C1135      C1136   1.563       .  S
C1135      C1141   1.554   1_546  S
C1135      C1139   1.544       .  S
C1135      C1626   1.604   1_545  S
C1136      H1143   1.080   1_545  S
C1136      C1137   1.383       .  D
C1137      C1138   1.502   1_556  S
C1137      C1171   1.464       .  S
C1138      C1142   1.512       .  S
C1138      C1140   1.502       .  S
C1138      H1144   1.111       .  S
C1139      H1145   1.085       .  S
C1139      C1140   1.381   1_556  D
C1140      C1273   1.465       .  S
C1141      H1146   1.085       .  S
C1141      C1142   1.386   1_565  D
C1142      C1331   1.476       .  S
Zr1147     O1148   2.406       .  S
Zr1147     O1149   2.434       .  S
Zr1147     O1150   2.489       .  S
Zr1147     O1153   2.520   1_455  S
Zr1147     O1155   2.378   1_554  S
Zr1147     O1156   2.401   1_455  S
Zr1147     O1157   2.399       .  S
Zr1147     O1158   2.351   1_455  S
O1148      H1204   0.991       .  S
O1148      H1212   0.987       .  S
O1149      C1169   1.285   1_554  A
O1150      C1171   1.299   1_554  A
O1151     Zr1161   2.350       .  S
O1151      C1170   1.266       .  A
O1152     Zr1160   2.353       .  S
O1152      C1171   1.268       .  A
O1153      C1170   1.304       .  A
O1154     Zr1162   2.344   1_455  S
O1154      C1169   1.257       .  A
O1155     Zr1160   2.375       .  S
O1155     Zr1162   2.388   1_455  S
O1156     Zr1161   2.377       .  S
O1156     Zr1162   2.387   1_554  S
O1156      H1191   0.966       .  S
O1157     Zr1160   2.393   1_554  S
O1157     Zr1177   2.361   1_445  S
O1157      H1194   0.964   1_545  S
O1158     Zr1161   2.366       .  S
O1158     Zr1177   2.331   1_545  S
Zr1159     O1184   2.411       .  S
Zr1159     O1178   2.496       .  S
Zr1159     O1186   2.484       .  S
Zr1159     O1174   2.528       .  S
Zr1159     O1165   2.394   1_565  S
Zr1159     O1166   2.399   1_565  S
Zr1159     O1167   2.371       .  S
Zr1159     O1168   2.391   1_556  S
Zr1160     O1179   2.436   1_545  S
Zr1160     O1172   2.435       .  S
Zr1160     O1173   2.367   1_545  S
Zr1160     O1166   2.391   1_455  S
Zr1160     O1167   2.381   1_445  S
Zr1161     O1163   2.437   1_545  S
Zr1161     O1185   2.443       .  S
Zr1161     O1187   2.330       .  S
Zr1161     O1165   2.371   1_554  S
Zr1161     O1168   2.390   1_545  S
Zr1162     O1188   2.438       .  S
Zr1162     O1189   2.436       .  S
Zr1162     O1164   2.439       .  S
Zr1162     O1165   2.360       .  S
Zr1162     O1166   2.346       .  S
O1163      H1200   0.990   1_565  S
O1164      H1195   0.990       .  S
O1164      H1209   0.990       .  S
O1166      H1192   0.962       .  S
O1167     Zr1177   2.399   1_556  S
O1168     Zr1177   2.394       .  S
O1168      H1193   0.965       .  S
C1169      C1232   1.447   1_456  S
C1170      C1220   1.459       .  S
O1172      H1208   0.990       .  S
O1173      C1175   1.269   1_455  A
O1174      C1175   1.305       .  A
O1176     Zr1177   2.436   1_455  S
O1176      H1205   0.990       .  S
Zr1177     O1180   2.430   1_655  S
Zr1177     O1181   2.437       .  S
Zr1177     O1182   2.332       .  S
O1178      C1183   1.298   1_556  A
O1179      H1196   0.990       .  S
O1179      H1211   0.990       .  S
O1180      H1197   0.989       .  S
O1181      H1201   0.990       .  S
O1181      H1210   0.990       .  S
O1182      C1183   1.259       .  A
O1184      H1203   0.990       .  S
O1184      H1207   0.988       .  S
O1185      H1199   0.990       .  S
O1185      H1206   0.990       .  S
O1186      C1190   1.299   1_566  A
O1187      C1190   1.264       .  A
O1188      H1198   0.990   1_556  S
O1189      H1202   0.990       .  S
C1213      C1214   1.555   1_645  S
C1213      C1219   1.552       .  S
C1213      C1217   1.566       .  S
C1213      C1533   1.598   1_545  S
C1214      H1221   1.086       .  S
C1214      C1215   1.384   1_565  D
C1215      C1216   1.501       .  S
C1215      C1339   1.469       .  S
C1216      C1220   1.499   1_455  S
C1216      C1218   1.500   1_455  S
C1216      H1222   1.110       .  S
C1217      H1223   1.084       .  S
C1217      C1218   1.389       .  D
C1218      C1405   1.472   1_655  S
C1219      H1224   1.085       .  S
C1219      C1220   1.376       .  D
C1225      C1226   1.551   1_556  S
C1225      C1231   1.560       .  S
C1225      C1229   1.562   1_655  S
C1225      C1805   1.605       .  S
C1226      H1233   1.086       .  S
C1226      C1227   1.379       .  D
C1227      C1228   1.503   1_655  S
C1227      C1412   1.473       .  S
C1228      C1232   1.494   1_455  S
C1228      C1230   1.494       .  S
C1228      H1234   1.111       .  S
C1229      H1235   1.085       .  S
C1229      C1230   1.391   1_556  D
C1230      C1265   1.478       .  S
C1231      H1236   1.078       .  S
C1231      C1232   1.380   1_556  D
Zr1237     O1238   2.393       .  S
Zr1237     O1239   2.498       .  S
Zr1237     O1240   2.582       .  S
Zr1237     O1243   2.553       .  S
Zr1237     O1245   2.369       .  S
Zr1237     O1246   2.399   1_556  S
Zr1237     O1247   2.397       .  S
Zr1237     O1248   2.367       .  S
O1238      H1294   0.980       .  S
O1238      H1302   0.988       .  S
O1239      C1259   1.297   1_556  A
O1240      C1261   1.320       .  A
O1241     Zr1251   2.346       .  S
O1241      C1260   1.269       .  A
O1242     Zr1250   2.376       .  S
O1242      C1261   1.272       .  A
O1243      C1260   1.313   1_556  A
O1244     Zr1252   2.321       .  S
O1244      C1259   1.259       .  A
O1245     Zr1250   2.384       .  S
O1245     Zr1252   2.396   1_556  S
O1246     Zr1251   2.384       .  S
O1246     Zr1252   2.374       .  S
O1246      H1281   0.965       .  S
O1247     Zr1250   2.388       .  S
O1247     Zr1267   2.340       .  S
O1247      H1284   0.961       .  S
O1248     Zr1251   2.368   1_556  S
O1248     Zr1267   2.335       .  S
Zr1249     O1274   2.395       .  S
Zr1249     O1268   2.522       .  S
Zr1249     O1276   2.530       .  S
Zr1249     O1264   2.555       .  S
Zr1249     O1255   2.373       .  S
Zr1249     O1256   2.398       .  S
Zr1249     O1257   2.372   1_554  S
Zr1249     O1258   2.382       .  S
Zr1250     O1269   2.435       .  S
Zr1250     O1262   2.436       .  S
Zr1250     O1263   2.358       .  S
Zr1250     O1256   2.389   1_556  S
Zr1250     O1257   2.393       .  S
Zr1251     O1253   2.439       .  S
Zr1251     O1275   2.442       .  S
Zr1251     O1277   2.377       .  S
Zr1251     O1255   2.351       .  S
Zr1251     O1258   2.375       .  S
Zr1252     O1278   2.435       .  S
Zr1252     O1279   2.436       .  S
Zr1252     O1254   2.437       .  S
Zr1252     O1255   2.337       .  S
Zr1252     O1256   2.331       .  S
O1253      H1290   0.990       .  S
O1254      H1285   0.990       .  S
O1254      H1299   0.990   1_554  S
O1256      H1282   0.960       .  S
O1257     Zr1267   2.393       .  S
O1258     Zr1267   2.392   1_554  S
O1258      H1283   0.966       .  S
O1262      H1298   0.990       .  S
O1263      C1265   1.270   1_556  A
O1264      C1265   1.313       .  A
O1266     Zr1267   2.439       .  S
O1266      H1295   0.990       .  S
Zr1267     O1270   2.438       .  S
Zr1267     O1271   2.440       .  S
Zr1267     O1272   2.316   1_556  S
O1268      C1273   1.303       .  A
O1269      H1286   0.990       .  S
O1269      H1301   0.990       .  S
O1270      H1287   0.990       .  S
O1271      H1291   0.990       .  S
O1271      H1300   0.990   1_556  S
O1272      C1273   1.259       .  A
O1274      H1293   0.986       .  S
O1274      H1297   0.988       .  S
O1275      H1289   0.990       .  S
O1275      H1296   0.990       .  S
O1276      C1280   1.308       .  A
O1277      C1280   1.273       .  A
O1278      H1288   0.990       .  S
O1279      H1292   0.991       .  S
C1280      C1440   1.469       .  S
Zr1303     O1304   2.432       .  S
Zr1303     O1305   2.498       .  S
Zr1303     O1306   2.542       .  S
Zr1303     O1309   2.540       .  S
Zr1303     O1311   2.382       .  S
Zr1303     O1312   2.381   1_565  S
Zr1303     O1313   2.409       .  S
Zr1303     O1314   2.393   1_565  S
O1304      H1360   0.990       .  S
O1304      H1368   0.986       .  S
O1305      C1325   1.300   1_565  A
O1306      C1327   1.310       .  A
O1307     Zr1317   2.297       .  S
O1307      C1326   1.256       .  A
O1308     Zr1316   2.367       .  S
O1308      C1327   1.269       .  A
O1309      C1326   1.309   1_565  A
O1310     Zr1318   2.327       .  S
O1310      C1325   1.260       .  A
O1311     Zr1316   2.384       .  S
O1311     Zr1318   2.389   1_565  S
O1312     Zr1317   2.382       .  S
O1312     Zr1318   2.390       .  S
O1312      H1347   0.965       .  S
O1313     Zr1316   2.399       .  S
O1313     Zr1333   2.350       .  S
O1313      H1350   0.963       .  S
O1314     Zr1317   2.378       .  S
O1314     Zr1333   2.365   1_545  S
Zr1315     O1340   2.399       .  S
Zr1315     O1334   2.492       .  S
Zr1315     O1342   2.554       .  S
Zr1315     O1330   2.510       .  S
Zr1315     O1321   2.349       .  S
Zr1315     O1322   2.408       .  S
Zr1315     O1323   2.374   1_545  S
Zr1315     O1324   2.384       .  S
Zr1316     O1335   2.436       .  S
Zr1316     O1328   2.436       .  S
Zr1316     O1329   2.376       .  S
Zr1316     O1322   2.392   1_565  S
Zr1316     O1323   2.377       .  S
Zr1317     O1319   2.437       .  S
Zr1317     O1341   2.448       .  S
Zr1317     O1343   2.328       .  S
Zr1317     O1321   2.352       .  S
Zr1317     O1324   2.374       .  S
Zr1318     O1344   2.438       .  S
Zr1318     O1345   2.438       .  S
Zr1318     O1320   2.438       .  S
Zr1318     O1321   2.333       .  S
Zr1318     O1322   2.360       .  S
O1319      H1356   0.990       .  S
O1320      H1351   0.990       .  S
O1320      H1365   0.990       .  S
O1322      H1348   0.963       .  S
O1323     Zr1333   2.392       .  S
O1324     Zr1333   2.386   1_545  S
O1324      H1349   0.965       .  S
O1328      H1364   0.990       .  S
O1329      C1331   1.273   1_565  A
O1330      C1331   1.304       .  A
O1332     Zr1333   2.437       .  S
O1332      H1361   0.991       .  S
Zr1333     O1336   2.437       .  S
Zr1333     O1337   2.437   1_565  S
Zr1333     O1338   2.348       .  S
O1334      C1339   1.298       .  A
O1335      H1352   0.990       .  S
O1335      H1367   0.990       .  S
O1336      H1353   0.991       .  S
O1337      H1357   0.990       .  S
O1337      H1366   0.990   1_545  S
O1338      C1339   1.261   1_565  A
O1340      H1359   0.985       .  S
O1340      H1363   0.989       .  S
O1341      H1355   0.991       .  S
O1341      H1362   0.990       .  S
O1342      C1346   1.313       .  A
O1343      C1346   1.261       .  A
O1344      H1354   0.990       .  S
O1345      H1358   0.990       .  S
C1346      C1437   1.465       .  S
Zr1369     O1370   2.416       .  S
Zr1369     O1371   2.512       .  S
Zr1369     O1372   2.526       .  S
Zr1369     O1375   2.468       .  S
Zr1369     O1377   2.362       .  S
Zr1369     O1378   2.389       .  S
Zr1369     O1379   2.398       .  S
Zr1369     O1380   2.388       .  S
O1370      H1426   0.987       .  S
O1370      H1434   0.990       .  S
O1371      C1391   1.303       .  A
O1372      C1393   1.305       .  A
O1373     Zr1383   2.364       .  S
O1373      C1392   1.272       .  A
O1374     Zr1382   2.380       .  S
O1374      C1393   1.272   1_455  A
O1375      C1392   1.294       .  A
O1376     Zr1384   2.328   1_655  S
O1376      C1391   1.260       .  A
O1377     Zr1382   2.392   1_655  S
O1377     Zr1384   2.402   1_655  S
O1378     Zr1383   2.397       .  S
O1378     Zr1384   2.385   1_655  S
O1378      H1413   0.966       .  S
O1379     Zr1382   2.392   1_655  S
O1379     Zr1399   2.355       .  S
O1379      H1416   0.962       .  S
O1380     Zr1383   2.363       .  S
O1380     Zr1399   2.352       .  S
Zr1381     O1406   2.399       .  S
Zr1381     O1400   2.493       .  S
Zr1381     O1408   2.533       .  S
Zr1381     O1396   2.517       .  S
Zr1381     O1387   2.358   1_455  S
Zr1381     O1388   2.398       .  S
Zr1381     O1389   2.373       .  S
Zr1381     O1390   2.395   1_455  S
Zr1382     O1401   2.436       .  S
Zr1382     O1394   2.435       .  S
Zr1382     O1395   2.361       .  S
Zr1382     O1388   2.395       .  S
Zr1382     O1389   2.382       .  S
Zr1383     O1385   2.437       .  S
Zr1383     O1407   2.441       .  S
Zr1383     O1409   2.375       .  S
Zr1383     O1387   2.355       .  S
Zr1383     O1390   2.392       .  S
Zr1384     O1410   2.436   1_455  S
Zr1384     O1411   2.436       .  S
Zr1384     O1386   2.438       .  S
Zr1384     O1387   2.331   1_455  S
Zr1384     O1388   2.345       .  S
O1385      H1422   0.990       .  S
O1386      H1417   0.990       .  S
O1386      H1431   0.990       .  S
O1388      H1414   0.961       .  S
O1389     Zr1399   2.393   1_455  S
O1390     Zr1399   2.390       .  S
O1390      H1415   0.965       .  S
O1394      H1430   0.990       .  S
O1395      C1397   1.272       .  A
O1396      C1397   1.305       .  A
C1397      C1442   1.471       .  S
O1398     Zr1399   2.436       .  S
O1398      H1427   0.990       .  S
Zr1399     O1402   2.438       .  S
Zr1399     O1403   2.444       .  S
Zr1399     O1404   2.349       .  S
O1400      C1405   1.298       .  A
O1401      H1418   0.990       .  S
O1401      H1433   0.991       .  S
O1402      H1419   0.991       .  S
O1403      H1423   0.989       .  S
O1403      H1432   0.990       .  S
O1404      C1405   1.259   1_655  A
O1406      H1425   0.988       .  S
O1406      H1429   0.990       .  S
O1407      H1421   0.990       .  S
O1407      H1428   0.990       .  S
O1408      C1412   1.306   1_455  A
O1409      C1412   1.271       .  A
O1410      H1420   0.990       .  S
O1411      H1424   0.991       .  S
C1435      C1436   1.564       .  S
C1435      C1441   1.559       .  S
C1435      C1439   1.549       .  S
C1435      C1485   1.616       .  S
C1436      H1443   1.084       .  S
C1436      C1437   1.395       .  D
C1437      C1438   1.493       .  S
C1438      C1442   1.501       .  S
C1438      C1440   1.503       .  S
C1438      H1444   1.112       .  S
C1439      H1445   1.086       .  S
C1439      C1440   1.381       .  D
C1441      H1446   1.082       .  S
C1441      C1442   1.382       .  D
C1447      C1453   1.629       .  S
C1447      C1597   1.629       .  S
C1447      C1866   1.652       .  S
C1447      C1949   1.648       .  S
C1448      C1613   1.641       .  S
C1448      C1693   1.637       .  S
C1448      C1885   1.628       .  S
C1448      C1933   1.633       .  S
C1449      C1450   1.419       .  A
C1449      C1454   1.434       .  A
C1449      H1456   1.079       .  S
C1450      C1451   1.427       .  A
C1451      C1458   1.508   1_545  S
C1451      C1452   1.429       .  A
C1452      C1453   1.430       .  A
C1452      H1457   1.074       .  S
C1453      C1454   1.443       .  A
C1454      C1455   1.512       .  S
C1455      H1459   1.106       .  S
C1455      H1460   1.108       .  S
C1455      H1461   1.110       .  S
C1458      H1462   1.110       .  S
C1458      H1463   1.106       .  S
C1458      H1464   1.111   1_565  S
C1465      C1466   1.415       .  A
C1465      C1470   1.439       .  A
C1465      H1472   1.081       .  S
C1466      C1467   1.434       .  A
C1467      C1474   1.505       .  S
C1467      C1468   1.439       .  A
C1468      C1469   1.427       .  A
C1468      H1473   1.081       .  S
C1469      C1470   1.448       .  A
C1470      C1471   1.504       .  S
C1471      H1475   1.111       .  S
C1471      H1476   1.106       .  S
C1471      H1477   1.100       .  S
C1474      H1478   1.105       .  S
C1474      H1479   1.110       .  S
C1474      H1480   1.111       .  S
C1481      C1482   1.430       .  A
C1481      C1486   1.441       .  A
C1481      H1488   1.077       .  S
C1482      C1483   1.451       .  A
C1483      C1490   1.514       .  S
C1483      C1484   1.435       .  A
C1484      C1485   1.419       .  A
C1484      H1489   1.078       .  S
C1485      C1486   1.431       .  A
C1486      C1487   1.507       .  S
C1487      H1491   1.111       .  S
C1487      H1492   1.109       .  S
C1487      H1493   1.106       .  S
C1490      H1494   1.094       .  S
C1490      H1495   1.110       .  S
C1490      H1496   1.112       .  S
C1497      C1498   1.414       .  A
C1497      C1502   1.427       .  A
C1497      H1504   1.080       .  S
C1498      C1499   1.429       .  A
C1499      C1506   1.507       .  S
C1499      C1500   1.430       .  A
C1500      C1501   1.424       .  A
C1500      H1505   1.076       .  S
C1501      C1502   1.445       .  A
C1502      C1503   1.511       .  S
C1503      H1507   1.111       .  S
C1503      H1508   1.096       .  S
C1503      H1509   1.110       .  S
C1506      H1510   1.104       .  S
C1506      H1511   1.110       .  S
C1506      H1512   1.111       .  S
C1513      C1514   1.416       .  A
C1513      C1518   1.437       .  A
C1513      H1520   1.077       .  S
C1514      C1515   1.435       .  A
C1515      C1522   1.509       .  S
C1515      C1516   1.442       .  A
C1516      C1517   1.427       .  A
C1516      H1521   1.083       .  S
C1517      C1518   1.457       .  A
C1518      C1519   1.513       .  S
C1519      H1523   1.112       .  S
C1519      H1524   1.111       .  S
C1519      H1525   1.089       .  S
C1522      H1526   1.109       .  S
C1522      H1527   1.105       .  S
C1522      H1528   1.111       .  S
C1529      C1530   1.426       .  A
C1529      C1534   1.430       .  A
C1529      H1536   1.079       .  S
C1530      C1531   1.444       .  A
C1531      C1538   1.508       .  S
C1531      C1532   1.432       .  A
C1532      C1533   1.414       .  A
C1532      H1537   1.082   1_565  S
C1533      C1534   1.432       .  A
C1534      C1535   1.509       .  S
C1535      H1539   1.111       .  S
C1535      H1540   1.106       .  S
C1535      H1541   1.110       .  S
C1538      H1542   1.096       .  S
C1538      H1543   1.110   1_565  S
C1538      H1544   1.110       .  S
C1545      C1546   1.421       .  A
C1545      C1550   1.437       .  A
C1545      H1552   1.074       .  S
C1546      C1547   1.449       .  A
C1547      C1554   1.508       .  S
C1547      C1548   1.440       .  A
C1548      C1549   1.417       .  A
C1548      H1553   1.083       .  S
C1549      C1550   1.443       .  A
C1550      C1551   1.502       .  S
C1551      H1555   1.111       .  S
C1551      H1556   1.109       .  S
C1551      H1557   1.110       .  S
C1554      H1558   1.106       .  S
C1554      H1559   1.111       .  S
C1554      H1560   1.106       .  S
C1561      C1562   1.417       .  A
C1561      C1566   1.442       .  A
C1561      H1568   1.082   1_565  S
C1562      C1563   1.437       .  A
C1563      C1570   1.506       .  S
C1563      C1564   1.441       .  A
C1564      C1565   1.426       .  A
C1564      H1569   1.079       .  S
C1565      C1566   1.455       .  A
C1566      C1567   1.511       .  S
C1567      H1571   1.111   1_565  S
C1567      H1572   1.099       .  S
C1567      H1573   1.109   1_565  S
C1570      H1574   1.105       .  S
C1570      H1575   1.110       .  S
C1570      H1576   1.111       .  S
C1577      C1578   1.429       .  A
C1577      C1582   1.443       .  A
C1577      H1584   1.080       .  S
C1578      C1579   1.449       .  A
C1579      C1586   1.512       .  S
C1579      C1580   1.435       .  A
C1580      C1581   1.418       .  A
C1580      H1585   1.075       .  S
C1581      C1582   1.433       .  A
C1582      C1583   1.508       .  S
C1583      H1587   1.110       .  S
C1583      H1588   1.108       .  S
C1583      H1589   1.105       .  S
C1586      H1590   1.103       .  S
C1586      H1591   1.105       .  S
C1586      H1592   1.111       .  S
C1593      C1594   1.415       .  A
C1593      C1598   1.426       .  A
C1593      H1600   1.073       .  S
C1594      C1595   1.427       .  A
C1595      C1602   1.507       .  S
C1595      C1596   1.434       .  A
C1596      C1597   1.430       .  A
C1596      H1601   1.083       .  S
C1597      C1598   1.450       .  A
C1598      C1599   1.517       .  S
C1599      H1603   1.101       .  S
C1599      H1604   1.111       .  S
C1599      H1605   1.101       .  S
C1602      H1606   1.108       .  S
C1602      H1607   1.106       .  S
C1602      H1608   1.111       .  S
C1609      C1610   1.416       .  A
C1609      C1614   1.438       .  A
C1609      H1616   1.082       .  S
C1610      C1611   1.432       .  A
C1611      C1618   1.508       .  S
C1611      C1612   1.433       .  A
C1612      C1613   1.429       .  A
C1612      H1617   1.079       .  S
C1613      C1614   1.446       .  A
C1614      C1615   1.510       .  S
C1615      H1619   1.110       .  S
C1615      H1620   1.108       .  S
C1615      H1621   1.103       .  S
C1618      H1622   1.105       .  S
C1618      H1623   1.110       .  S
C1618      H1624   1.111       .  S
C1625      C1626   1.416       .  A
C1625      C1630   1.428       .  A
C1625      H1632   1.075       .  S
C1626      C1627   1.434       .  A
C1627      C1634   1.510       .  S
C1627      C1628   1.436       .  A
C1628      C1629   1.422       .  A
C1628      H1633   1.081       .  S
C1629      C1630   1.446       .  A
C1630      C1631   1.514       .  S
C1631      H1635   1.111       .  S
C1631      H1636   1.110       .  S
C1631      H1637   1.097       .  S
C1634      H1638   1.108   1_556  S
C1634      H1639   1.106   1_565  S
C1634      H1640   1.111   1_556  S
C1641      C1642   1.427       .  A
C1641      C1646   1.432       .  A
C1641      H1648   1.082       .  S
C1642      C1643   1.449       .  A
C1643      C1650   1.513       .  S
C1643      C1644   1.425       .  A
C1644      C1645   1.412       .  A
C1644      H1649   1.079   1_556  S
C1645      C1646   1.428       .  A
C1646      C1647   1.509       .  S
C1647      H1651   1.111       .  S
C1647      H1652   1.109       .  S
C1647      H1653   1.104       .  S
C1650      H1654   1.110   1_556  S
C1650      H1655   1.112   1_556  S
C1650      H1656   1.093       .  S
C1657      C1658   1.423       .  A
C1657      C1662   1.431       .  A
C1657      H1664   1.076       .  S
C1658      C1659   1.452       .  A
C1659      C1666   1.510       .  S
C1659      C1660   1.439       .  A
C1660      C1661   1.416       .  A
C1660      H1665   1.081       .  S
C1661      C1662   1.431       .  A
C1662      C1663   1.508   1_565  S
C1663      H1667   1.111       .  S
C1663      H1668   1.110   1_545  S
C1663      H1669   1.104       .  S
C1666      H1670   1.107       .  S
C1666      H1671   1.104       .  S
C1666      H1672   1.111       .  S
C1673      C1674   1.409       .  A
C1673      C1678   1.428       .  A
C1673      H1680   1.082       .  S
C1674      C1675   1.432       .  A
C1675      C1682   1.508       .  S
C1675      C1676   1.431       .  A
C1676      C1677   1.425       .  A
C1676      H1681   1.081       .  S
C1677      C1678   1.445       .  A
C1678      C1679   1.505       .  S
C1679      H1683   1.111       .  S
C1679      H1684   1.101       .  S
C1679      H1685   1.104       .  S
C1682      H1686   1.110       .  S
C1682      H1687   1.106       .  S
C1682      H1688   1.111       .  S
C1689      C1690   1.418       .  A
C1689      C1694   1.436       .  A
C1689      H1696   1.083       .  S
C1690      C1691   1.429       .  A
C1691      C1698   1.507       .  S
C1691      C1692   1.432       .  A
C1692      C1693   1.430       .  A
C1692      H1697   1.079       .  S
C1693      C1694   1.444       .  A
C1694      C1695   1.507       .  S
C1695      H1699   1.110       .  S
C1695      H1700   1.096       .  S
C1695      H1701   1.111       .  S
C1698      H1702   1.106       .  S
C1698      H1703   1.110       .  S
C1698      H1704   1.111       .  S
C1705      C1706   1.424       .  A
C1705      C1710   1.431       .  A
C1705      H1712   1.076       .  S
C1706      C1707   1.448       .  A
C1707      C1714   1.511       .  S
C1707      C1708   1.440       .  A
C1708      C1709   1.417       .  A
C1708      H1713   1.079       .  S
C1709      C1710   1.434       .  A
C1710      C1711   1.511   1_455  S
C1711      H1715   1.111       .  S
C1711      H1716   1.110       .  S
C1711      H1717   1.104       .  S
C1714      H1718   1.109       .  S
C1714      H1719   1.110       .  S
C1714      H1720   1.107       .  S
C1721      C1722   1.419       .  A
C1721      C1726   1.440       .  A
C1721      H1728   1.081       .  S
C1722      C1723   1.436       .  A
C1723      C1730   1.508       .  S
C1723      C1724   1.439       .  A
C1724      C1725   1.428       .  A
C1724      H1729   1.077       .  S
C1725      C1726   1.447       .  A
C1726      C1727   1.508       .  S
C1727      H1731   1.110       .  S
C1727      H1732   1.101       .  S
C1727      H1733   1.111       .  S
C1730      H1734   1.110       .  S
C1730      H1735   1.105       .  S
C1730      H1736   1.111       .  S
C1737      C1738   1.413       .  A
C1737      C1742   1.431       .  A
C1737      H1744   1.072       .  S
C1738      C1739   1.431       .  A
C1739      C1746   1.508   1_554  S
C1739      C1740   1.441       .  A
C1740      C1741   1.431       .  A
C1740      H1745   1.083       .  S
C1741      C1742   1.456       .  A
C1742      C1743   1.515       .  S
C1743      H1747   1.110       .  S
C1743      H1748   1.101       .  S
C1743      H1749   1.101       .  S
C1746      H1750   1.108       .  S
C1746      H1751   1.105   1_556  S
C1746      H1752   1.111   1_556  S
C1753      C1754   1.419       .  A
C1753      C1758   1.441       .  A
C1753      H1760   1.082   1_455  S
C1754      C1755   1.428       .  A
C1755      C1762   1.505       .  S
C1755      C1756   1.432       .  A
C1756      C1757   1.430       .  A
C1756      H1761   1.078       .  S
C1757      C1758   1.449       .  A
C1758      C1759   1.513       .  S
C1759      H1763   1.110       .  S
C1759      H1764   1.098       .  S
C1759      H1765   1.107       .  S
C1762      H1766   1.110       .  S
C1762      H1767   1.106       .  S
C1762      H1768   1.111       .  S
C1769      C1770   1.423       .  A
C1769      C1774   1.442       .  A
C1769      H1776   1.083       .  S
C1770      C1771   1.433       .  A
C1771      C1778   1.505   1_455  S
C1771      C1772   1.439       .  A
C1772      C1773   1.427       .  A
C1772      H1777   1.073       .  S
C1773      C1774   1.448       .  A
C1774      C1775   1.509       .  S
C1775      H1779   1.111       .  S
C1775      H1780   1.096       .  S
C1775      H1781   1.110       .  S
C1778      H1782   1.110       .  S
C1778      H1783   1.107       .  S
C1778      H1784   1.111       .  S
C1785      C1786   1.418       .  A
C1785      C1790   1.435       .  A
C1785      H1792   1.076       .  S
C1786      C1787   1.433       .  A
C1787      C1794   1.509       .  S
C1787      C1788   1.438       .  A
C1788      C1789   1.427       .  A
C1788      H1793   1.077       .  S
C1789      C1790   1.449       .  A
C1790      C1791   1.514       .  S
C1791      H1795   1.111       .  S
C1791      H1796   1.093       .  S
C1791      H1797   1.111       .  S
C1794      H1798   1.107       .  S
C1794      H1799   1.107       .  S
C1794      H1800   1.111       .  S
C1801      C1802   1.425       .  A
C1801      C1806   1.430       .  A
C1801      H1808   1.070       .  S
C1802      C1803   1.450       .  A
C1803      C1810   1.508       .  S
C1803      C1804   1.439       .  A
C1804      C1805   1.415       .  A
C1804      H1809   1.082       .  S
C1805      C1806   1.431       .  A
C1806      C1807   1.507       .  S
C1807      H1811   1.111       .  S
C1807      H1812   1.109       .  S
C1807      H1813   1.108       .  S
C1810      H1814   1.110       .  S
C1810      H1815   1.101       .  S
C1810      H1816   1.107       .  S
C1817      C1818   1.425       .  A
C1817      C1822   1.435       .  A
C1817      H1824   1.083       .  S
C1818      C1819   1.453       .  A
C1819      C1826   1.514       .  S
C1819      C1820   1.436       .  A
C1820      C1821   1.416       .  A
C1820      H1825   1.076   1_556  S
C1821      C1822   1.433       .  A
C1822      C1823   1.510       .  S
C1823      H1827   1.111       .  S
C1823      H1828   1.108       .  S
C1823      H1829   1.105       .  S
C1826      H1830   1.111   1_556  S
C1826      H1831   1.101       .  S
C1826      H1832   1.104       .  S
C1833      C1834   1.429       .  A
C1833      C1838   1.439       .  A
C1833      H1840   1.083       .  S
C1834      C1835   1.456       .  A
C1835      C1842   1.515       .  S
C1835      C1836   1.434       .  A
C1836      C1837   1.415       .  A
C1836      H1841   1.075       .  S
C1837      C1838   1.431       .  A
C1838      C1839   1.507       .  S
C1839      H1843   1.111       .  S
C1839      H1844   1.105       .  S
C1839      H1845   1.109       .  S
C1842      H1846   1.102       .  S
C1842      H1847   1.105       .  S
C1842      H1848   1.111       .  S
C1849      C1850   1.427       .  A
C1849      C1854   1.434       .  A
C1849      H1856   1.079       .  S
C1850      C1851   1.451       .  A
C1851      C1858   1.505       .  S
C1851      C1852   1.434       .  A
C1852      C1853   1.411       .  A
C1852      H1857   1.084       .  S
C1853      C1854   1.435       .  A
C1854      C1855   1.507       .  S
C1855      H1859   1.111       .  S
C1855      H1860   1.109       .  S
C1855      H1861   1.110       .  S
C1858      H1862   1.090       .  S
C1858      H1863   1.110       .  S
C1858      H1864   1.111       .  S
C1865      C1866   1.433       .  A
C1865      C1870   1.434       .  A
C1865      H1872   1.073       .  S
C1866      C1867   1.446       .  A
C1867      C1874   1.510       .  S
C1867      C1868   1.439       .  A
C1868      C1869   1.421       .  A
C1868      H1873   1.084       .  S
C1869      C1870   1.434       .  A
C1870      C1871   1.504       .  S
C1871      H1875   1.111       .  S
C1871      H1876   1.109       .  S
C1871      H1877   1.109       .  S
C1874      H1878   1.110       .  S
C1874      H1879   1.101       .  S
C1874      H1880   1.111       .  S
C1881      C1882   1.416       .  A
C1881      C1886   1.432       .  A
C1881      H1888   1.082       .  S
C1882      C1883   1.429       .  A
C1883      C1890   1.505       .  S
C1883      C1884   1.428       .  A
C1884      C1885   1.425       .  A
C1884      H1889   1.076       .  S
C1885      C1886   1.442       .  A
C1886      C1887   1.509       .  S
C1887      H1891   1.110       .  S
C1887      H1892   1.105       .  S
C1887      H1893   1.107       .  S
C1890      H1894   1.106       .  S
C1890      H1895   1.110       .  S
C1890      H1896   1.112       .  S
C1897      C1898   1.429       .  A
C1897      C1902   1.444       .  A
C1897      H1904   1.076       .  S
C1898      C1899   1.452       .  A
C1899      C1906   1.515       .  S
C1899      C1900   1.436       .  A
C1900      C1901   1.419       .  A
C1900      H1905   1.075       .  S
C1901      C1902   1.433       .  A
C1902      C1903   1.508       .  S
C1903      H1907   1.111       .  S
C1903      H1908   1.107       .  S
C1903      H1909   1.107       .  S
C1906      H1910   1.111       .  S
C1906      H1911   1.092       .  S
C1906      H1912   1.111       .  S
C1913      C1914   1.422   1_655  A
C1913      C1918   1.436   1_655  A
C1913      H1920   1.075       .  S
C1914      C1915   1.431       .  A
C1915      C1922   1.509       .  S
C1915      C1916   1.436       .  A
C1916      C1917   1.426       .  A
C1916      H1921   1.072       .  S
C1917      C1918   1.446       .  A
C1918      C1919   1.511       .  S
C1919      H1923   1.111   1_455  S
C1919      H1924   1.111   1_455  S
C1919      H1925   1.095       .  S
C1922      H1926   1.105   1_545  S
C1922      H1927   1.106       .  S
C1922      H1928   1.110       .  S
C1929      C1930   1.419       .  A
C1929      C1934   1.439       .  A
C1929      H1936   1.083       .  S
C1930      C1931   1.431       .  A
C1931      C1938   1.507       .  S
C1931      C1932   1.429       .  A
C1932      C1933   1.425       .  A
C1932      H1937   1.078       .  S
C1933      C1934   1.443       .  A
C1934      C1935   1.511       .  S
C1935      H1939   1.111       .  S
C1935      H1940   1.104       .  S
C1935      H1941   1.108       .  S
C1938      H1942   1.112       .  S
C1938      H1943   1.110       .  S
C1938      H1944   1.107       .  S
C1945      C1946   1.413       .  A
C1945      C1950   1.439       .  A
C1945      H1952   1.082       .  S
C1946      C1947   1.430       .  A
C1947      C1954   1.508   1_554  S
C1947      C1948   1.429       .  A
C1948      C1949   1.423       .  A
C1948      H1953   1.070       .  S
C1949      C1950   1.455       .  A
C1950      C1951   1.510       .  S
C1951      H1955   1.110       .  S
C1951      H1956   1.100       .  S
C1951      H1957   1.106       .  S
C1954      H1958   1.107       .  S
C1954      H1959   1.110       .  S
C1954      H1960   1.111   1_556  S
