geometry optimzed in LAMMPS
_audit_creation_date              2020-12-01 
_audit_creation_method            'lammps2cif' 
_symmetry_space_group_name_H-M    'P1' 
_symmetry_Int_Tables_number       1 
_symmetry_cell_setting            triclinic 
loop_ 
_symmetry_equiv_pos_as_xyz 
  x,y,z 
_cell_length_a                    46.64738429 
_cell_length_b                    46.69795398879055 
_cell_length_c                    38.813502376694046 
_cell_angle_alpha                 90.01817521466097 
_cell_angle_beta                  89.91827892586036 
_cell_angle_gamma                 119.94346916572275 
loop_ 
_atom_site_label 
_atom_site_type_symbol 
_atom_site_fract_x 
_atom_site_fract_y 
_atom_site_fract_z 
_atom_site_charge 
C1          C  0.50355910  0.01682518  0.99511881     0.04500
S2          S  0.54487246  0.03318724  0.97888039    -0.09500
C3          C  0.54089469  0.06108565  0.95031515    -0.00700
C4          C  0.51280527  0.06271484  0.95141684    -0.00700
S5          S  0.47961530  0.03408559  0.97839417    -0.09500
C6          C  0.45285793  0.94578654  0.06097679    -0.00700
C7          C  0.48293086  0.94856382  0.06456473    -0.00700
S8          S  0.51598765  0.97724833  0.03757030    -0.09500
C9          C  0.49106788  0.99256902  0.01892812     0.04500
S10         S  0.44893687  0.97431645  0.03330832    -0.09500
O11         O  0.53097620  0.79916499  0.21564755    -0.72000
O12         O  0.52969284  0.73322522  0.28372226    -0.73000
O13         O  0.53014661  0.73793573  0.21063053    -0.61600
O14         O  0.53059183  0.79488874  0.28876066    -0.70000
O15         O  0.47578215  0.76511914  0.29100989    -0.69500
O16         O  0.47543789  0.71400522  0.20762194    -0.60800
O17         O  0.47494102  0.70445391  0.27923789    -0.73300
O18         O  0.47620339  0.77456528  0.21929662    -0.72100
Cu19       Cu  0.53234538  0.76729212  0.24972755     1.04600
Cu20       Cu  0.47369107  0.73862965  0.24931904     1.04300
C21         C  0.50368539  0.79765176  0.20769969     0.94200
C22         C  0.50195499  0.70766753  0.29091048     0.93400
C23         C  0.50271748  0.71719107  0.19666367     0.85500
C24         C  0.50311806  0.78875863  0.30230913     0.91800
O25         O  0.52454968  0.23538451  0.78795507    -0.72000
O26         O  0.52389446  0.29154085  0.71045676    -0.73000
O27         O  0.52415730  0.29592293  0.78276748    -0.61600
O28         O  0.52413196  0.23166129  0.71473849    -0.70000
O29         O  0.46920513  0.20444048  0.71410631    -0.69500
O30         O  0.46931653  0.26719076  0.78604581    -0.60800
O31         O  0.46901631  0.26560534  0.71225762    -0.73300
O32         O  0.46967345  0.20612043  0.78745422    -0.72100
Cu33       Cu  0.52601651  0.26448509  0.74908789     1.04600
Cu34       Cu  0.46728456  0.23481083  0.75002853     1.04300
C35         C  0.49742769  0.21168032  0.79963904     0.94200
C36         C  0.49648608  0.28765273  0.69924994     0.93400
C37         C  0.49697768  0.29202407  0.79487001     0.85500
C38         C  0.49680215  0.20835983  0.70312325     0.91800
O39         O  0.79616900  0.26589496  0.71970871    -0.72000
O40         O  0.73905773  0.20574368  0.79583810    -0.73000
O41         O  0.73704013  0.20285125  0.72254292    -0.61600
O42         O  0.79816601  0.26885917  0.79252264    -0.70000
O43         O  0.76766959  0.29320860  0.79170756    -0.69500
O44         O  0.70651193  0.22721248  0.72311851    -0.60800
O45         O  0.70897571  0.23058366  0.79440313    -0.73300
O46         O  0.76529706  0.28982875  0.71858498    -0.72100
Cu47       Cu  0.76878380  0.23501955  0.75769684     1.04600
Cu48       Cu  0.73625616  0.26121318  0.75695563     1.04300
C49         C  0.78962346  0.28728562  0.70718051     0.94200
C50         C  0.71425397  0.20810121  0.80603278     0.93400
C51         C  0.71155862  0.20417143  0.71278016     0.85500
C52         C  0.79249617  0.29152277  0.80294715     0.91800
O53         O  0.23457984  0.70144622  0.28952791    -0.72000
O54         O  0.29530595  0.76499822  0.21829621    -0.73000
O55         O  0.29651109  0.76294390  0.29109273    -0.61600
O56         O  0.23504992  0.70530246  0.21685802    -0.70000
O57         O  0.20728682  0.73238725  0.22073370    -0.69500
O58         O  0.26860229  0.78986664  0.29546909    -0.60800
O59         O  0.26867233  0.79319322  0.22211804    -0.73300
O60         O  0.20765510  0.72933024  0.29399758    -0.72100
Cu61       Cu  0.26631275  0.73271020  0.25407876     1.04600
Cu62       Cu  0.23710179  0.76218793  0.25824392     1.04300
C63         C  0.21119056  0.70482315  0.30235345     0.94200
C64         C  0.29127581  0.78886888  0.20864149     0.93400
C65         C  0.29265985  0.78583178  0.30442397     0.85500
C66         C  0.21168551  0.71003507  0.20687826     0.91800
C67         C  0.98496196  0.50249996  0.99086687     0.04500
S68         S  0.97186855  0.52870401  0.97033422    -0.09500
C69         C  0.94385633  0.49650919  0.94188544    -0.00700
C70         C  0.94034494  0.46616471  0.94573833    -0.00700
S71         S  0.96593239  0.46053581  0.97627999    -0.09500
C72         C  0.05309107  0.52132678  0.06106448    -0.00700
C73         C  0.05596540  0.55144928  0.05747147    -0.00700
S74         S  0.02733845  0.55585753  0.03032956    -0.09500
C75         C  0.00831771  0.51388353  0.01582208     0.04500
S76         S  0.02211184  0.48798837  0.03576101    -0.09500
C77         C  0.97703476  0.48415703  0.50452167     0.04500
S78         S  0.95599973  0.44188510  0.51854124    -0.09500
C79         C  0.92919940  0.44787785  0.54695292    -0.00700
C80         C  0.93279467  0.47837740  0.54949833    -0.00700
S81         S  0.96326029  0.51069081  0.52266900    -0.09500
C82         C  0.05204324  0.53086811  0.44077043    -0.00700
C83         C  0.04957549  0.50074945  0.44173298    -0.00700
S84         S  0.01560743  0.46806037  0.46449428    -0.09500
C85         C  0.00218571  0.49520312  0.48156288     0.04500
S86         S  0.02386807  0.53735362  0.46686834    -0.09500
O87         O  0.26385269  0.46929234  0.20818266    -0.72000
O88         O  0.19809637  0.46406495  0.27915184    -0.73000
O89         O  0.20384720  0.47153561  0.20610452    -0.61600
O90         O  0.25852018  0.46183319  0.28103490    -0.70000
O91         O  0.28612109  0.51635958  0.28743269    -0.69500
O92         O  0.23184770  0.52596017  0.21343449    -0.60800
O93         O  0.22720727  0.51853739  0.28570602    -0.73300
O94         O  0.29259468  0.52370254  0.21557409    -0.72100
Cu95       Cu  0.23002038  0.46472192  0.24331576     1.04600
Cu96       Cu  0.26040545  0.52300937  0.25051737     1.04300
C97         C  0.28915731  0.49736824  0.20166868     0.94200
C98         C  0.20262482  0.49052271  0.29385357     0.93400
C99         C  0.20871191  0.50030648  0.19880440     0.85500
C100        C  0.28103108  0.48779676  0.29591556     0.91800
O101        O  0.73232023  0.53724516  0.70910528    -0.72000
O102        O  0.79792832  0.54027619  0.77864015    -0.73000
O103        O  0.79294479  0.53642420  0.70509395    -0.61600
O104        O  0.73695670  0.54059574  0.78221867    -0.70000
O105        O  0.71214932  0.48599512  0.78734710    -0.69500
O106        O  0.76371262  0.48159526  0.70766711    -0.60800
O107        O  0.77217751  0.48541555  0.77910353    -0.73300
O108        O  0.70301124  0.48272475  0.71525164    -0.72100
Cu109      Cu  0.76600726  0.54063719  0.74360892     1.04600
Cu110      Cu  0.73671822  0.48206511  0.74733059     1.04300
C111        C  0.70683976  0.50949534  0.70204987     0.94200
C112        C  0.79578308  0.51331551  0.78911788     0.93400
C113        C  0.78736670  0.50805127  0.69492329     0.85500
C114        C  0.71604739  0.51377357  0.79714761     0.91800
C115        C  0.50933172  0.49916710  0.98683910     0.04500
S116        S  0.55094554  0.52359181  0.97164398    -0.09500
C117        C  0.54893441  0.49004923  0.94745889    -0.00700
C118        C  0.52000671  0.46118211  0.94594178    -0.00700
S119        S  0.48639078  0.45704184  0.97218888    -0.09500
C120        C  0.45843823  0.52089105  0.05133230    -0.00700
C121        C  0.48561544  0.55103168  0.04784014    -0.00700
S122        S  0.51877660  0.55471058  0.02137487    -0.09500
C123        C  0.49608536  0.51207812  0.00846309     0.04500
S124        S  0.45520880  0.48745340  0.02566375    -0.09500
C125        C  0.50715631  0.48238243  0.49221829     0.04500
S126        S  0.48417514  0.44052425  0.50744654    -0.09500
C127        C  0.51522655  0.44662369  0.53837162    -0.00700
C128        C  0.54129866  0.47740261  0.54264241    -0.00700
S129        S  0.54547445  0.50928324  0.51369723    -0.09500
C130        C  0.48576534  0.52987839  0.42273537    -0.00700
C131        C  0.45728283  0.50046440  0.42324637    -0.00700
S132        S  0.45633614  0.46687483  0.44661059    -0.09500
C133        C  0.49581685  0.49318072  0.46613099     0.04500
S134        S  0.51925701  0.53449000  0.44949392    -0.09500
C135        C  0.50819369  0.00881172  0.51955029     0.04500
S136        S  0.54888409  0.02436494  0.53724379    -0.09500
C137        C  0.54544143  0.05381343  0.56395725    -0.00700
C138        C  0.51803993  0.05654595  0.56116864    -0.00700
S139        S  0.48516215  0.02800252  0.53380946    -0.09500
C140        C  0.45915920  0.93940251  0.45118864    -0.00700
C141        C  0.48719656  0.93773548  0.45334124    -0.00700
S142        S  0.51935914  0.96563128  0.48161511    -0.09500
C143        C  0.49562296  0.98387877  0.49642765     0.04500
S144        S  0.45466615  0.96759225  0.47904730    -0.09500
C145        C  0.62175203  0.51895864  0.89617803     0.21300
C146        C  0.64500257  0.53904448  0.87135444    -0.38600
C147        C  0.66444031  0.52673751  0.85745132     0.20300
C148        C  0.66076684  0.49660598  0.86742165     0.22900
C149        C  0.63780091  0.47670989  0.89252667    -0.39100
C150        C  0.61845946  0.48906944  0.90648621     0.21700
N151        N  0.59829363  0.52359660  0.91074004    -0.32400
C152        C  0.57959318  0.49623093  0.92990636    -0.09900
C153        C  0.59191767  0.47448326  0.92865471    -0.28700
N154        N  0.67973809  0.48890677  0.84799737    -0.45300
C155        C  0.69567180  0.51432117  0.82560212    -0.04600
C156        C  0.68711201  0.53861981  0.83090501    -0.22000
H157        H  0.64683898  0.56187258  0.86247157     0.19800
H158        H  0.63422784  0.45270466  0.89952594     0.18600
H159        H  0.58159349  0.45039428  0.94061271     0.14900
H160        H  0.69473719  0.56081203  0.81589903     0.14800
H161        H  0.59404049  0.54322839  0.90629753     0.33000
H162        H  0.68080758  0.46710141  0.84900806     0.35700
C163        C  0.61386502  0.50744930  0.59546713     0.21300
C164        C  0.64794937  0.52373955  0.60248930    -0.38600
C165        C  0.65691221  0.51620562  0.63432259     0.20300
C166        C  0.63368186  0.49374660  0.65708803     0.22900
C167        C  0.59962247  0.47820783  0.65049141    -0.39100
C168        C  0.59069873  0.48609144  0.61892725     0.21700
N169        N  0.59911362  0.50799991  0.56590627    -0.32400
C170        C  0.56635554  0.48654066  0.57043219    -0.09900
C171        C  0.56014017  0.47342418  0.60376502    -0.28700
N172        N  0.64854841  0.48860525  0.68408166    -0.45300
C173        C  0.68145494  0.50833232  0.67879600    -0.04600
C174        C  0.68770482  0.52625898  0.64826612    -0.22000
H175        H  0.66618617  0.54019373  0.58406730     0.19800
H176        H  0.58145508  0.46036249  0.66806937     0.18600
H177        H  0.53659647  0.45568225  0.61492773     0.14900
H178        H  0.71155088  0.54320969  0.63710646     0.14800
H179        H  0.61079019  0.52088752  0.54344030     0.33000
H180        H  0.63706922  0.47250300  0.70472704     0.35700
C181        C  0.40615929  0.51619886  0.12140115     0.21300
C182        C  0.39848593  0.52600933  0.15255802    -0.38600
C183        C  0.36471175  0.51288869  0.15930256     0.20300
C184        C  0.34035882  0.49087058  0.13721819     0.22900
C185        C  0.34808394  0.48129455  0.10583122    -0.39100
C186        C  0.38195090  0.49512332  0.09865708     0.21700
N187        N  0.43639973  0.52681503  0.10822917    -0.32400
C188        C  0.43150583  0.51349938  0.07624027    -0.09900
C189        C  0.39786479  0.49294615  0.06965349    -0.28700
N190        N  0.31011848  0.48210407  0.14959329    -0.45300
C191        C  0.31544049  0.49938665  0.17923065    -0.04600
C192        C  0.34910619  0.51880607  0.18616508    -0.22000
H193        H  0.41744724  0.54335255  0.16979093     0.19800
H194        H  0.32916304  0.46498125  0.08794620     0.18600
H195        H  0.38657535  0.47945577  0.04621984     0.14900
H196        H  0.36055462  0.53489222  0.20805611     0.14800
H197        H  0.45893281  0.54276470  0.12008572     0.33000
H198        H  0.28734197  0.46603065  0.13824927     0.35700
C199        C  0.33330385  0.47057936  0.34860451     0.21300
C200        C  0.35148231  0.45499708  0.35729696    -0.38600
C201        C  0.37898149  0.47319883  0.37879353     0.20300
C202        C  0.38733404  0.50427202  0.39097016     0.22900
C203        C  0.36924780  0.51976321  0.38236165    -0.39100
C204        C  0.34215462  0.50184277  0.36062211     0.21700
N205        N  0.30847199  0.46029140  0.32563046    -0.32400
C206        C  0.30215222  0.48556613  0.32261861    -0.09900
C207        C  0.32236860  0.51164234  0.34436377    -0.28700
N208        N  0.41551496  0.51738005  0.40909133    -0.45300
C209        C  0.42586069  0.49496223  0.40782027    -0.04600
C210        C  0.40334339  0.46672163  0.38975952    -0.22000
H211        H  0.34555212  0.43116490  0.34687455     0.19800
H212        H  0.37669224  0.54464736  0.39065834     0.18600
H213        H  0.32397638  0.53553582  0.34618696     0.14900
H214        H  0.40533544  0.44508265  0.38411847     0.14800
H215        H  0.29824156  0.43860978  0.31105067     0.33000
H216        H  0.42734587  0.54054891  0.42094419     0.35700
C217        C  0.12039780  0.50273057  0.40388931     0.21300
C218        C  0.15295456  0.51903458  0.39153305    -0.38600
C219        C  0.15961439  0.50325663  0.36462754     0.20300
C220        C  0.13589872  0.47307617  0.35144081     0.22900
C221        C  0.10314918  0.45678467  0.36369745    -0.39100
C222        C  0.09625700  0.47299613  0.39020286     0.21700
N223        N  0.10716272  0.51481659  0.42621225    -0.32400
C224        C  0.07412374  0.49349519  0.42570697    -0.09900
C225        C  0.06642632  0.46649135  0.40441183    -0.28700
N226        N  0.14829869  0.46411378  0.32487775    -0.45300
C227        C  0.17987780  0.48911655  0.32090391    -0.04600
C228        C  0.18778640  0.51391750  0.34520248    -0.22000
H229        H  0.17133727  0.54309652  0.40100584     0.19800
H230        H  0.08411564  0.43403503  0.35231069     0.18600
H231        H  0.04205879  0.44650041  0.39777283     0.14900
H232        H  0.21089583  0.53693727  0.34788536     0.14800
H233        H  0.11959585  0.53746008  0.43906175     0.33000
H234        H  0.13577211  0.44294830  0.30966404     0.35700
C235        C  0.88084848  0.50356334  0.59270076     0.21300
C236        C  0.85991582  0.51710661  0.59574779    -0.38600
C237        C  0.84223203  0.51047304  0.62689049     0.20300
C238        C  0.84472356  0.49110536  0.65240613     0.22900
C239        C  0.86595128  0.47811913  0.64960956    -0.39100
C240        C  0.88409566  0.48538872  0.61898577     0.21700
N241        N  0.89900115  0.50467696  0.56519510    -0.32400
C242        C  0.91354896  0.48677692  0.57399274    -0.09900
C243        C  0.90569452  0.47540285  0.60787226    -0.28700
N244        N  0.82486535  0.48745809  0.67899497    -0.45300
C245        C  0.81008561  0.50518362  0.67096679    -0.04600
C246        C  0.82029238  0.52013288  0.63869378    -0.22000
H247        H  0.85740982  0.53149004  0.57533957     0.19800
H248        H  0.86792389  0.46312256  0.66970166     0.18600
H249        H  0.91332629  0.46030292  0.62189447     0.14900
H250        H  0.81256716  0.53563059  0.62564673     0.14800
H251        H  0.90016643  0.51555936  0.54134369     0.33000
H252        H  0.82208016  0.47432720  0.70172950     0.35700
C253        C  0.10757583  0.49843031  0.10298353     0.21300
C254        C  0.12819229  0.48450581  0.10572198    -0.38600
C255        C  0.14950216  0.49465781  0.13437780     0.20300
C256        C  0.15061617  0.51748380  0.15790265     0.22900
C257        C  0.12945525  0.53063371  0.15567586    -0.39100
C258        C  0.10779139  0.51998980  0.12753807     0.21700
N259        N  0.08678100  0.49477674  0.07708969    -0.32400
C260        C  0.07397887  0.51447099  0.08507408    -0.09900
C261        C  0.08558046  0.52942802  0.11716491    -0.28700
N262        N  0.17321503  0.52359919  0.18243458    -0.45300
C263        C  0.18604816  0.50389122  0.17521730    -0.04600
C264        C  0.17185065  0.48533648  0.14545441    -0.22000
H265        H  0.12788923  0.46731624  0.08681770     0.19800
H266        H  0.13011881  0.54824238  0.17426385     0.18600
H267        H  0.07994181  0.54640214  0.13043148     0.14900
H268        H  0.17678969  0.46713831  0.13390307     0.14800
H269        H  0.08291850  0.48115819  0.05450823     0.33000
H270        H  0.17847710  0.53906566  0.20378290     0.35700
C271        C  0.89350916  0.52004081  0.89285442     0.21300
C272        C  0.87170344  0.53227686  0.88778029    -0.38600
C273        C  0.85439946  0.52372753  0.85636219     0.20300
C274        C  0.85807007  0.50390447  0.83227299     0.22900
C275        C  0.88024645  0.49221140  0.83705891    -0.39100
C276        C  0.89793474  0.50126130  0.86810789     0.21700
N277        N  0.91078934  0.52232554  0.92151918    -0.32400
C278        C  0.92593690  0.50447396  0.91515214    -0.09900
C279        C  0.91937560  0.49200284  0.88155256    -0.28700
N280        N  0.83752400  0.49764658  0.80553268    -0.45300
C281        C  0.82112676  0.51414809  0.81218520    -0.04600
C282        C  0.83102426  0.53088362  0.84356219    -0.22000
H283        H  0.86793444  0.54674505  0.90716408     0.19800
H284        H  0.88290523  0.47648584  0.81835930     0.18600
H285        H  0.92742770  0.47636197  0.86936686     0.14900
H286        H  0.82170638  0.54547435  0.85573627     0.14800
H287        H  0.91066596  0.53360982  0.94471283     0.33000
H288        H  0.83488245  0.48316485  0.78393961     0.35700
C289        C  0.38418772  0.88460266  0.40654674     0.21300
C290        C  0.35039057  0.86112046  0.40317195    -0.38600
C291        C  0.34133898  0.84291855  0.37230628     0.20300
C292        C  0.36437810  0.84739340  0.34723584     0.22900
C293        C  0.39784523  0.87131883  0.35024338    -0.39100
C294        C  0.40672297  0.88980937  0.38067401     0.21700
N295        N  0.39974106  0.90311598  0.43434490    -0.32400
C296        C  0.43238954  0.91977190  0.42612056    -0.09900
C297        C  0.43741498  0.91299514  0.39233696    -0.28700
N298        N  0.34997691  0.82650484  0.32086342    -0.45300
C299        C  0.31738677  0.80907988  0.32865621    -0.04600
C300        C  0.31085975  0.81864487  0.36044782    -0.22000
H301        H  0.33260738  0.85694270  0.42327000     0.19800
H302        H  0.41582046  0.87480496  0.33061750     0.18600
H303        H  0.46071113  0.92206789  0.37890180     0.14900
H304        H  0.28709889  0.80925548  0.37299306     0.14800
H305        H  0.38911303  0.90286670  0.45812782     0.33000
H306        H  0.36139972  0.82499000  0.29830682     0.35700
C307        C  0.12860215  0.61551205  0.09776049     0.21300
C308        C  0.16095987  0.63027055  0.11062634    -0.38600
C309        C  0.16864507  0.65397841  0.13646487     0.20300
C310        C  0.14597705  0.66266503  0.14824290     0.22900
C311        C  0.11355364  0.64774292  0.13552738    -0.39100
C312        C  0.10573885  0.62375666  0.10996653     0.21700
N313        N  0.11432638  0.59012632  0.07560973    -0.32400
C314        C  0.08196120  0.58155939  0.07449438    -0.09900
C315        C  0.07579653  0.60242965  0.09493084    -0.28700
N316        N  0.15881926  0.68458377  0.17411334    -0.45300
C317        C  0.18963781  0.68940895  0.17921156    -0.04600
C318        C  0.19674214  0.67087707  0.15615467    -0.22000
H319        H  0.17841674  0.62285679  0.10215267     0.19800
H320        H  0.09538809  0.65346717  0.14573413     0.18600
H321        H  0.05212187  0.60056465  0.10013579     0.14900
H322        H  0.21909541  0.66931455  0.15465799     0.14800
H323        H  0.12546553  0.57812277  0.06359576     0.33000
H324        H  0.14689020  0.69456905  0.18837149     0.35700
C325        C  0.11087973  0.60759506  0.40040546     0.21300
C326        C  0.13178356  0.64199761  0.39718230    -0.38600
C327        C  0.15169384  0.65264076  0.36739807     0.20300
C328        C  0.15121677  0.63054952  0.34327231     0.22900
C329        C  0.12983507  0.59641243  0.34608179    -0.39100
C330        C  0.10960524  0.58593417  0.37536315     0.21700
N331        N  0.09025219  0.59091814  0.42660935    -0.32400
C332        C  0.07589522  0.55839998  0.41818484    -0.09900
C333        C  0.08669293  0.55462267  0.38576957    -0.28700
N334        N  0.17301284  0.64647330  0.31791137    -0.45300
C335        C  0.18706169  0.67903782  0.32532814    -0.04600
C336        C  0.17429530  0.68403079  0.35588625    -0.22000
H337        H  0.13259257  0.65914680  0.41644515     0.19800
H338        H  0.12918111  0.57920947  0.32696744     0.18600
H339        H  0.07926463  0.53196854  0.37173823     0.14900
H340        H  0.18080454  0.70735551  0.36804519     0.14800
H341        H  0.08675511  0.60098098  0.44918022     0.33000
H342        H  0.17746772  0.63590294  0.29630601     0.35700
C343        C  0.59746957  0.10092393  0.63411381     0.21300
C344        C  0.60460346  0.11758193  0.66569202    -0.38600
C345        C  0.63807188  0.13994443  0.67185767     0.20300
C346        C  0.66277635  0.14491555  0.64871197     0.22900
C347        C  0.65556155  0.12846907  0.61684187    -0.39100
C348        C  0.62189582  0.10643579  0.61038788     0.21700
N349        N  0.56738767  0.08015760  0.62136905    -0.32400
C350        C  0.57245596  0.07319234  0.58878051    -0.09900
C351        C  0.60619881  0.08849915  0.58125247    -0.28700
N352        N  0.69259422  0.16795573  0.66061853    -0.45300
C353        C  0.68647223  0.17801665  0.69111634    -0.04600
C354        C  0.65286842  0.16121067  0.69895868    -0.22000
H355        H  0.58538300  0.11410971  0.68370050     0.19800
H356        H  0.67462353  0.13312063  0.59811908     0.18600
H357        H  0.61756772  0.08804733  0.55708678     0.14900
H358        H  0.64091392  0.16436459  0.72140515     0.14800
H359        H  0.54473548  0.07216368  0.63373715     0.33000
H360        H  0.71545016  0.17705385  0.64833467     0.35700
C361        C  0.82696721  0.34505907  0.63837734     0.21300
C362        C  0.82978319  0.36819418  0.61359946    -0.38600
C363        C  0.85993156  0.38423457  0.59574788     0.20300
C364        C  0.88543246  0.37794491  0.60233256     0.22900
C365        C  0.88246214  0.35450282  0.62681410    -0.39100
C366        C  0.85219080  0.33822764  0.64444589     0.21700
N367        N  0.80144871  0.32766298  0.65983589    -0.32400
C368        C  0.81034116  0.30937794  0.67946287    -0.09900
C369        C  0.84177052  0.31516587  0.67055031    -0.28700
N370        N  0.91260920  0.39868640  0.58437739    -0.45300
C371        C  0.90458896  0.41871560  0.56670083    -0.04600
C372        C  0.87153515  0.40969916  0.57224953    -0.22000
H373        H  0.81032230  0.37399486  0.60927235     0.19800
H374        H  0.90256926  0.34995317  0.63240877     0.18600
H375        H  0.85546950  0.30462557  0.68224361     0.14900
H376        H  0.85847461  0.42163407  0.56226995     0.14800
H377        H  0.77944534  0.32837419  0.66123523     0.33000
H378        H  0.93580512  0.40045090  0.58568194     0.35700
C379        C  0.89468339  0.39298323  0.89525815     0.21300
C380        C  0.89010635  0.36670432  0.87402059    -0.38600
C381        C  0.85884553  0.34876244  0.85863568     0.20300
C382        C  0.83421952  0.35666249  0.86378039     0.22900
C383        C  0.83869944  0.38272877  0.88522084    -0.39100
C384        C  0.86981114  0.40044363  0.90080750     0.21700
N385        N  0.92258912  0.41483906  0.91139660    -0.32400
C386        C  0.91552252  0.43658173  0.92690952    -0.09900
C387        C  0.88256923  0.42790474  0.92159650    -0.28700
N388        N  0.80737931  0.33698272  0.84495242    -0.45300
C389        C  0.81483628  0.31623382  0.82786948    -0.04600
C390        C  0.84665758  0.32266093  0.83585061    -0.22000
H391        H  0.90962511  0.36105337  0.86930426     0.19800
H392        H  0.81960667  0.38917502  0.88892208     0.18600
H393        H  0.87006358  0.44077196  0.93056416     0.14900
H394        H  0.85946710  0.31057326  0.82554670     0.14800
H395        H  0.94539990  0.41570992  0.91078336     0.33000
H396        H  0.78548068  0.33788128  0.84347662     0.35700
C397        C  0.49158320  0.10523050  0.60859344     0.21300
C398        C  0.47018868  0.11100283  0.62920238    -0.38600
C399        C  0.48431124  0.14234254  0.64462597     0.20300
C400        C  0.51724134  0.16595691  0.63990391     0.22900
C401        C  0.53843709  0.16037962  0.61890639    -0.39100
C402        C  0.52430185  0.12916228  0.60346427     0.21700
N403        N  0.48499943  0.07674731  0.59330565    -0.32400
C404        C  0.51384761  0.08246418  0.57877864    -0.09900
C405        C  0.53867281  0.11523320  0.58378966    -0.28700
N406        N  0.52544124  0.19261335  0.65949284    -0.45300
C407        C  0.49759625  0.18607512  0.67684132    -0.04600
C408        C  0.47123832  0.15509935  0.66795731    -0.22000
H409        H  0.44477541  0.09211756  0.63384884     0.19800
H410        H  0.56435163  0.17857929  0.61583848     0.18600
H411        H  0.56418896  0.12696054  0.57539001     0.14900
H412        H  0.44640438  0.14294596  0.67841635     0.14800
H413        H  0.46266288  0.05437650  0.59402405     0.33000
H414        H  0.54882997  0.21362305  0.66165594     0.35700
C415        C  0.51750310  0.40790646  0.87768938     0.21300
C416        C  0.52725189  0.40027423  0.84652796    -0.38600
C417        C  0.51313012  0.36661450  0.83912787     0.20300
C418        C  0.49028349  0.34218525  0.86061730     0.22900
C419        C  0.48083354  0.34987477  0.89223609    -0.39100
C420        C  0.49564631  0.38378368  0.90005025     0.21700
N421        N  0.52806200  0.43814957  0.89058623    -0.32400
C422        C  0.51402032  0.43364266  0.92220022    -0.09900
C423        C  0.49304008  0.39995606  0.92873972    -0.28700
N424        N  0.48056890  0.31202369  0.84730109    -0.45300
C425        C  0.49808908  0.31765391  0.81766759    -0.04600
C426        C  0.51860966  0.35128822  0.81181641    -0.22000
H427        H  0.54503465  0.41921782  0.82953467     0.24000
H428        H  0.46363186  0.33093069  0.90960798     0.18600
H429        H  0.47838597  0.38881191  0.95163262     0.14900
H430        H  0.53537815  0.36292803  0.79040420     0.14800
H431        H  0.54365907  0.46044729  0.87814784     0.33000
H432        H  0.46395559  0.28914774  0.85811978     0.35700
C433        C  0.51604396  0.34492021  0.63011773     0.21300
C434        C  0.53659424  0.36886583  0.60609329    -0.38600
C435        C  0.52192911  0.38381508  0.58735028     0.20300
C436        C  0.48935671  0.37575848  0.59236918     0.22900
C437        C  0.46867975  0.35150448  0.61616719    -0.39100
C438        C  0.48327754  0.33632333  0.63475503     0.21700
N439        N  0.52460941  0.32843642  0.65227045    -0.32400
C440        C  0.49709303  0.30898016  0.67103982    -0.09900
C441        C  0.47068744  0.31304927  0.66076931    -0.28700
N442        N  0.48238014  0.39589511  0.57396262    -0.45300
C443        C  0.51086398  0.41730306  0.55766730    -0.04600
C444        C  0.53578506  0.40980534  0.56449367    -0.22000
H445        H  0.56240986  0.37610323  0.60303683     0.19800
H446        H  0.44341592  0.34563847  0.62065374     0.18600
H447        H  0.44599747  0.30135367  0.67156990     0.14900
H448        H  0.56127404  0.42317305  0.55593360     0.14800
H449        H  0.54791126  0.33060461  0.65476493     0.33000
H450        H  0.46027604  0.39645999  0.57424588     0.35700
C451        C  0.48203390  0.86801721  0.40897015     0.21300
C452        C  0.46598225  0.83609178  0.39499440    -0.38600
C453        C  0.48440841  0.82929053  0.37120816     0.20300
C454        C  0.51654287  0.85240891  0.36223631     0.22900
C455        C  0.53255606  0.88450440  0.37607659    -0.39100
C456        C  0.51397484  0.89141065  0.39970499     0.21700
N457        N  0.46901841  0.88105249  0.43041531    -0.32400
C458        C  0.49247890  0.91325017  0.43423344    -0.09900
C459        C  0.52113267  0.92051529  0.41599255    -0.28700
N460        N  0.52794462  0.84032807  0.33764678    -0.45300
C461        C  0.50267368  0.80953548  0.33059475    -0.04600
C462        C  0.47519266  0.80174849  0.35113888    -0.22000
H463        H  0.44060241  0.81821016  0.40132624     0.19800
H464        H  0.55724920  0.90300951  0.36824205     0.18600
H465        H  0.54347222  0.94427209  0.41355892     0.14900
H466        H  0.45124132  0.77945692  0.35045910     0.14800
H467        H  0.44521699  0.86899569  0.44093630     0.33000
H468        H  0.55085164  0.85283974  0.32521964     0.35700
C469        C  0.48394777  0.65850406  0.12909637     0.21300
C470        C  0.46351839  0.63287510  0.10657252    -0.38600
C471        C  0.47838012  0.61688088  0.09003483     0.20300
C472        C  0.51101400  0.62553578  0.09568845     0.22900
C473        C  0.53158965  0.65148910  0.11785571    -0.39100
C474        C  0.51679343  0.66765410  0.13423903     0.21700
N475        N  0.47502799  0.67572951  0.14990575    -0.32400
C476        C  0.50241468  0.69609497  0.16833797    -0.09900
C477        C  0.52904787  0.69197858  0.15908341    -0.28700
N478        N  0.51811522  0.60420025  0.07988352    -0.45300
C479        C  0.48964850  0.58143529  0.06459644    -0.04600
C480        C  0.46464585  0.58926660  0.06937671    -0.22000
H481        H  0.43759447  0.62505225  0.10326391     0.19800
H482        H  0.55685505  0.65775337  0.12304001     0.18600
H483        H  0.55353766  0.70391228  0.17031969     0.14900
H484        H  0.43921037  0.57537792  0.06082822     0.14800
H485        H  0.45147825  0.67300450  0.15225066     0.33000
H486        H  0.54033845  0.60392438  0.08126385     0.35700
C487        C  0.48549709  0.58684783  0.36050019     0.21300
C488        C  0.47433234  0.59634509  0.33157981    -0.38600
C489        C  0.48718070  0.63037268  0.32752514     0.20300
C490        C  0.51015350  0.65342247  0.34998845     0.22900
C491        C  0.52097342  0.64384213  0.37933925    -0.39100
C492        C  0.50744770  0.60958316  0.38384642     0.21700
N493        N  0.47610355  0.55589467  0.37045050    -0.32400
C494        C  0.49099497  0.55856655  0.40123577    -0.09900
C495        C  0.51135288  0.59180510  0.41005173    -0.28700
N496        N  0.51893812  0.68431960  0.33978652    -0.45300
C497        C  0.50074528  0.68056350  0.31115376    -0.04600
C498        C  0.48062255  0.64737154  0.30283864    -0.22000
H499        H  0.45649820  0.57847753  0.31381811     0.19800
H500        H  0.53826945  0.66166303  0.39750053     0.18600
H501        H  0.52619884  0.60161841  0.43304921     0.14900
H502        H  0.46379005  0.63712554  0.28128358     0.14800
H503        H  0.46037676  0.53435884  0.35691373     0.33000
H504        H  0.53570812  0.70645372  0.35179334     0.35700
C505        C  0.61772600  0.11192042  0.90667365     0.21300
C506        C  0.65210691  0.13302848  0.90359367    -0.38600
C507        C  0.66298542  0.15000890  0.87212640     0.20300
C508        C  0.64105614  0.14638506  0.84617958     0.22900
C509        C  0.60695130  0.12493664  0.84900392    -0.39100
C510        C  0.59621776  0.10783083  0.88014438     0.21700
N511        N  0.60079841  0.09485182  0.93464643    -0.32400
C512        C  0.56836697  0.08030289  0.92589444    -0.09900
C513        C  0.56466893  0.08703058  0.89169656    -0.28700
N514        N  0.65693373  0.16661625  0.81982452    -0.45300
C515        C  0.68927605  0.18298102  0.82858535    -0.04600
C516        C  0.69431625  0.17321863  0.86092783    -0.22000
H517        H  0.66898076  0.13659559  0.92441655     0.19800
H518        H  0.58990665  0.12249586  0.82878948     0.18600
H519        H  0.54189814  0.07902184  0.87762430     0.14900
H520        H  0.71741835  0.18261784  0.87475153     0.14800
H521        H  0.61059101  0.09437104  0.95868176     0.33000
H522        H  0.64641989  0.16928410  0.79716115     0.35700
C523        C  0.51902409  0.13247310  0.90605636     0.21300
C524        C  0.53542078  0.16407351  0.89125532    -0.38600
C525        C  0.51697356  0.17084529  0.86751295     0.20300
C526        C  0.48448985  0.14806586  0.85946436     0.22900
C527        C  0.46811444  0.11635830  0.87420436    -0.39100
C528        C  0.48673338  0.10942849  0.89765837     0.21700
N529        N  0.53193951  0.11933939  0.92746489    -0.32400
C530        C  0.50805975  0.08737028  0.93198370    -0.09900
C531        C  0.47924023  0.08046969  0.91441507    -0.28700
N532        N  0.47293856  0.16009438  0.83502972    -0.45300
C533        C  0.49843584  0.19052724  0.82716181    -0.04600
C534        C  0.52625931  0.19811689  0.84696608    -0.22000
H535        H  0.56102340  0.18169338  0.89694282     0.19800
H536        H  0.44309891  0.09810298  0.86713088     0.18600
H537        H  0.45651960  0.05696865  0.91267506     0.14900
H538        H  0.55031434  0.22025195  0.84579822     0.14800
H539        H  0.55588950  0.13119660  0.93753662     0.33000
H540        H  0.44961888  0.14788319  0.82348506     0.35700
C541        C  0.50876141  0.89906756  0.11100492     0.21300
C542        C  0.52357620  0.87948564  0.11534656    -0.38600
C543        C  0.51392261  0.85955199  0.14496416     0.20300
C544        C  0.49086399  0.85887211  0.16798161     0.22900
C545        C  0.47680330  0.87903875  0.16412516    -0.39100
C546        C  0.48681401  0.89923087  0.13490739     0.21700
N547        N  0.51125849  0.91778156  0.08361722    -0.32400
C548        C  0.49036025  0.92947003  0.09000425    -0.09900
C549        C  0.47579269  0.91948155  0.12246890    -0.28700
N550        N  0.48416229  0.83643952  0.19277145    -0.45300
C551        C  0.50361346  0.82324160  0.18605313    -0.04600
C552        C  0.52273500  0.83706621  0.15656065    -0.22000
H553        H  0.54059387  0.87910397  0.09661650     0.19800
H554        H  0.45858787  0.87828038  0.18198362     0.18600
H555        H  0.45813541  0.92482767  0.13469980     0.14900
H556        H  0.54000279  0.83088723  0.14480006     0.14800
H557        H  0.52488193  0.92087710  0.06116495     0.33000
H558        H  0.46758052  0.83062763  0.21323676     0.35700
C559        C  0.34010612  0.85511105  0.15069316     0.21300
C560        C  0.35481329  0.88740214  0.13756946    -0.38600
C561        C  0.37961507  0.89554575  0.11275283     0.20300
C562        C  0.38883166  0.87309980  0.10167142     0.22900
C563        C  0.37420292  0.84085548  0.11483130    -0.39100
C564        C  0.34966560  0.83284873  0.13988571     0.21700
N565        N  0.31742419  0.84199944  0.17596926    -0.32400
C566        C  0.31290921  0.81138356  0.18161907    -0.09900
C567        C  0.33247600  0.80472388  0.15951596    -0.28700
N568        N  0.41475657  0.88761384  0.08011261    -0.45300
C569        C  0.42265639  0.91973315  0.07810173    -0.04600
C570        C  0.40083690  0.92547551  0.09747280    -0.22000
H571        H  0.34827992  0.90523973  0.14692123     0.19800
H572        H  0.38225191  0.82370463  0.10711835     0.18600
H573        H  0.33441933  0.78258732  0.15852782     0.14900
H574        H  0.40192501  0.94889286  0.10180663     0.14800
H575        H  0.30659034  0.85357761  0.18939637     0.33000
H576        H  0.42741618  0.87676685  0.06892758     0.35700
loop_ 
_geom_bond_atom_site_label_1 
_geom_bond_atom_site_label_2 
_geom_bond_distance 
_geom_bond_site_symmetry_2 
_ccdc_geom_bond_type 
C1            S2   1.795       .  S
C1            S5   1.794       .  S
C1            C9   1.348   1_546  D
S2            C3   1.790       .  S
C3            C4   1.351       .  D
C3          C512   1.482       .  S
C4            S5   1.792       .  S
C4          C530   1.483       .  S
C6           S10   1.791       .  S
C6            C7   1.350       .  D
C6          C569   1.481       .  S
C7            S8   1.790       .  S
C7          C548   1.483       .  S
S8            C9   1.794       .  S
C9           S10   1.796       .  S
O11         Cu19   2.016       .  S
O11          C21   1.278       .  A
O12         Cu19   2.023       .  S
O12          C22   1.278       .  A
O13         Cu19   2.013       .  S
O13          C23   1.278       .  A
O14         Cu19   2.017       .  S
O14          C24   1.278       .  A
O15         Cu20   2.009       .  S
O15          C24   1.278       .  A
O16         Cu20   2.010       .  S
O16          C23   1.277       .  A
O17         Cu20   1.998       .  S
O17          C22   1.276       .  A
O18         Cu20   1.998       .  S
O18          C21   1.276       .  A
Cu19        Cu20   2.371       .  S
C21         C551   1.462       .  S
C22         C497   1.467       .  S
C23         C476   1.471       .  S
C24         C461   1.472       .  S
O25         Cu33   2.009       .  S
O25          C35   1.278       .  A
O26         Cu33   1.995       .  S
O26          C36   1.275       .  A
O27         Cu33   1.999       .  S
O27          C37   1.276       .  A
O28         Cu33   2.000       .  S
O28          C38   1.276       .  A
O29         Cu34   2.022       .  S
O29          C38   1.279       .  A
O30         Cu34   2.026       .  S
O30          C37   1.278       .  A
O31         Cu34   2.027       .  S
O31          C36   1.280       .  A
O32         Cu34   2.017       .  S
O32          C35   1.278       .  A
Cu33        Cu34   2.374       .  S
C35         C533   1.472       .  S
C36         C440   1.471       .  S
C37         C425   1.468       .  S
C38         C407   1.471       .  S
O39         Cu47   2.010       .  S
O39          C49   1.278       .  A
O40         Cu47   2.021       .  S
O40          C50   1.278       .  A
O41         Cu47   2.024       .  S
O41          C51   1.279       .  A
O42         Cu47   2.011       .  S
O42          C52   1.278       .  A
O43         Cu48   2.004       .  S
O43          C52   1.277       .  A
O44         Cu48   1.994       .  S
O44          C51   1.275       .  A
O45         Cu48   1.989       .  S
O45          C50   1.275       .  A
O46         Cu48   2.007       .  S
O46          C49   1.277       .  A
Cu47        Cu48   2.377       .  S
C49         C368   1.469       .  S
C50         C515   1.461       .  S
C51         C353   1.464       .  S
C52         C389   1.468       .  S
O53         Cu61   2.013       .  S
O53          C63   1.278       .  A
O54         Cu61   1.998       .  S
O54          C64   1.276       .  A
O55         Cu61   2.015       .  S
O55          C65   1.278       .  A
O56         Cu61   1.998       .  S
O56          C66   1.276       .  A
O57         Cu62   2.016       .  S
O57          C66   1.278       .  A
O58         Cu62   2.007       .  S
O58          C65   1.276       .  A
O59         Cu62   2.024       .  S
O59          C64   1.279       .  A
O60         Cu62   2.015       .  S
O60          C63   1.277       .  A
Cu61        Cu62   2.377       .  S
C63         C335   1.469       .  S
C64         C566   1.470       .  S
C65         C299   1.465       .  S
C66         C317   1.467       .  S
C67          S68   1.804       .  S
C67          S71   1.792       .  S
C67          C75   1.354   1_656  D
S68          C69   1.797       .  S
C69          C70   1.351       .  D
C69         C278   1.492       .  S
C70          S71   1.793       .  S
C70         C386   1.479       .  S
C72          S76   1.798       .  S
C72          C73   1.352       .  D
C72         C260   1.495       .  S
C73          S74   1.793       .  S
C73         C314   1.478       .  S
S74          C75   1.792       .  S
C75          S76   1.804       .  S
C77          S78   1.795       .  S
C77          S81   1.799       .  S
C77          C85   1.353   1_655  D
S78          C79   1.790       .  S
C79          C80   1.352       .  D
C79         C371   1.482       .  S
C80          S81   1.799       .  S
C80         C242   1.487       .  S
C82          S86   1.800       .  S
C82          C83   1.353       .  D
C82         C332   1.493       .  S
C83          S84   1.790       .  S
C83         C224   1.483       .  S
S84          C85   1.797       .  S
C85          S86   1.798       .  S
O87         Cu95   2.013       .  S
O87          C97   1.277       .  A
O88         Cu95   2.025       .  S
O88          C98   1.279       .  A
O89         Cu95   2.018       .  S
O89          C99   1.278       .  A
O90         Cu95   2.028       .  S
O90         C100   1.279       .  A
O91         Cu96   1.991       .  S
O91         C100   1.276       .  A
O92         Cu96   2.013       .  S
O92          C99   1.278       .  A
O93         Cu96   1.995       .  S
O93          C98   1.276       .  A
O94         Cu96   2.010       .  S
O94          C97   1.278       .  A
Cu95        Cu96   2.376       .  S
C97         C191   1.467       .  S
C98         C227   1.470       .  S
C99         C263   1.471       .  S
C100        C206   1.470       .  S
O101       Cu109   2.011       .  S
O101        C111   1.277       .  A
O102       Cu109   2.024       .  S
O102        C112   1.279       .  A
O103       Cu109   2.023       .  S
O103        C113   1.279       .  A
O104       Cu109   2.018       .  S
O104        C114   1.279       .  A
O105       Cu110   1.991       .  S
O105        C114   1.275       .  A
O106       Cu110   1.995       .  S
O106        C113   1.275       .  A
O107       Cu110   2.007       .  S
O107        C112   1.277       .  A
O108       Cu110   2.019       .  S
O108        C111   1.278       .  A
Cu109      Cu110   2.374       .  S
C111        C173   1.469       .  S
C112        C281   1.469       .  S
C113        C245   1.464       .  S
C114        C155   1.465       .  S
C115        S116   1.790       .  S
C115        S119   1.799       .  S
C115        C123   1.349   1_556  D
S116        C117   1.788       .  S
C117        C118   1.351       .  D
C117        C152   1.476       .  S
C118        S119   1.796       .  S
C118        C422   1.491       .  S
C120        S124   1.794       .  S
C120        C121   1.351       .  D
C120        C188   1.482       .  S
C121        S122   1.791       .  S
C121        C479   1.486       .  S
S122        C123   1.798       .  S
C123        S124   1.792       .  S
C125        S126   1.796       .  S
C125        S129   1.797       .  S
C125        C133   1.352       .  D
S126        C127   1.792       .  S
C127        C128   1.352       .  D
C127        C443   1.483       .  S
C128        S129   1.797       .  S
C128        C170   1.489       .  S
C130        S134   1.798       .  S
C130        C131   1.353       .  D
C130        C494   1.491       .  S
C131        S132   1.793       .  S
C131        C209   1.483       .  S
S132        C133   1.794       .  S
C133        S134   1.796       .  S
C135        S136   1.797       .  S
C135        S139   1.795       .  S
C135        C143   1.351   1_545  D
S136        C137   1.792       .  S
C137        C138   1.351       .  D
C137        C350   1.483       .  S
C138        S139   1.794       .  S
C138        C404   1.485       .  S
C140        S144   1.794       .  S
C140        C141   1.351       .  D
C140        C296   1.485       .  S
C141        S142   1.790       .  S
C141        C458   1.483       .  S
S142        C143   1.795       .  S
C143        S144   1.799       .  S
C145        C150   1.385       .  A
C145        C146   1.402       .  A
C145        N151   1.341       .  A
C146        C147   1.401       .  A
C146        H157   1.082       .  S
C147        C156   1.378       .  A
C147        C148   1.385       .  A
C148        C149   1.402       .  A
C148        N154   1.340       .  A
C149        C150   1.400       .  A
C149        H158   1.082       .  S
C150        C153   1.376       .  A
N151        C152   1.354       .  A
N151        H161   1.045       .  S
C152        C153   1.395       .  A
C153        H159   1.082       .  S
N154        C155   1.355       .  A
N154        H162   1.045       .  S
C155        C156   1.393       .  A
C156        H160   1.082       .  S
C163        C168   1.383       .  A
C163        C164   1.405       .  A
C163        N169   1.346       .  A
C164        C165   1.405       .  A
C164        H175   1.082       .  S
C165        C174   1.380       .  A
C165        C166   1.385       .  A
C166        C167   1.402       .  A
C166        N172   1.343       .  A
C167        C168   1.402       .  A
C167        H176   1.083       .  S
C168        C171   1.374       .  A
N169        C170   1.357       .  A
N169        H179   1.044       .  S
C170        C171   1.398       .  A
C171        H177   1.082       .  S
N172        C173   1.354       .  A
N172        H180   1.045       .  S
C173        C174   1.395       .  A
C174        H178   1.082       .  S
C181        C186   1.384       .  A
C181        C182   1.401       .  A
C181        N187   1.341       .  A
C182        C183   1.400       .  A
C182        H193   1.083       .  S
C183        C192   1.375       .  A
C183        C184   1.385       .  A
C184        C185   1.405       .  A
C184        N190   1.345       .  A
C185        C186   1.404       .  A
C185        H194   1.082       .  S
C186        C189   1.379       .  A
N187        C188   1.356       .  A
N187        H197   1.044       .  S
C188        C189   1.395       .  A
C189        H195   1.082       .  S
N190        C191   1.355       .  A
N190        H198   1.045       .  S
C191        C192   1.393       .  A
C192        H196   1.083       .  S
C199        C204   1.385       .  A
C199        C200   1.407       .  A
C199        N205   1.347       .  A
C200        C201   1.407       .  A
C200        H211   1.082       .  S
C201        C210   1.382       .  A
C201        C202   1.384       .  A
C202        C203   1.399       .  A
C202        N208   1.340       .  A
C203        C204   1.399       .  A
C203        H212   1.083       .  S
C204        C207   1.372       .  A
N205        C206   1.357       .  A
N205        H215   1.045       .  S
C206        C207   1.393       .  A
C207        H213   1.083       .  S
N208        C209   1.355       .  A
N208        H216   1.045       .  S
C209        C210   1.397       .  A
C210        H214   1.082       .  S
C217        C222   1.385       .  A
C217        C218   1.400       .  A
C217        N223   1.340       .  A
C218        C219   1.399       .  A
C218        H229   1.083       .  S
C219        C228   1.374       .  A
C219        C220   1.384       .  A
C220        C221   1.406       .  A
C220        N226   1.346       .  A
C221        C222   1.406       .  A
C221        H230   1.082       .  S
C222        C225   1.382       .  A
N223        C224   1.355       .  A
N223        H233   1.045       .  S
C224        C225   1.397       .  A
C225        H231   1.082       .  S
N226        C227   1.356       .  A
N226        H234   1.045       .  S
C227        C228   1.393       .  A
C228        H232   1.083       .  S
C235        C240   1.383       .  A
C235        C236   1.408       .  A
C235        N241   1.346       .  A
C236        C237   1.407       .  A
C236        H247   1.082       .  S
C237        C246   1.386       .  A
C237        C238   1.385       .  A
C238        C239   1.400       .  A
C238        N244   1.339       .  A
C239        C240   1.398       .  A
C239        H248   1.083       .  S
C240        C243   1.373       .  A
N241        C242   1.358       .  A
N241        H251   1.044       .  S
C242        C243   1.397       .  A
C243        H249   1.082       .  S
N244        C245   1.352       .  A
N244        H252   1.045       .  S
C245        C246   1.396       .  A
C246        H250   1.082       .  S
C253        C258   1.383       .  A
C253        C254   1.408       .  A
C253        N259   1.348       .  A
C254        C255   1.408       .  A
C254        H265   1.082       .  S
C255        C264   1.384       .  A
C255        C256   1.384       .  A
C256        C257   1.402       .  A
C256        N262   1.342       .  A
C257        C258   1.401       .  A
C257        H266   1.083       .  S
C258        C261   1.374       .  A
N259        C260   1.359       .  A
N259        H269   1.044       .  S
C260        C261   1.399       .  A
C261        H267   1.082       .  S
N262        C263   1.354       .  A
N262        H270   1.045       .  S
C263        C264   1.397       .  A
C264        H268   1.082       .  S
C271        C276   1.383       .  A
C271        C272   1.407       .  A
C271        N277   1.347       .  A
C272        C273   1.407       .  A
C272        H283   1.082       .  S
C273        C282   1.383       .  A
C273        C274   1.385       .  A
C274        C275   1.403       .  A
C274        N280   1.343       .  A
C275        C276   1.402       .  A
C275        H284   1.082       .  S
C276        C279   1.376       .  A
N277        C278   1.357       .  A
N277        H287   1.044       .  S
C278        C279   1.399       .  A
C279        H285   1.082       .  S
N280        C281   1.354       .  A
N280        H288   1.045       .  S
C281        C282   1.396       .  A
C282        H286   1.082       .  S
C289        C294   1.384       .  A
C289        C290   1.407       .  A
C289        N295   1.347       .  A
C290        C291   1.407       .  A
C290        H301   1.082       .  S
C291        C300   1.382       .  A
C291        C292   1.385       .  A
C292        C293   1.399       .  A
C292        N298   1.341       .  A
C293        C294   1.399       .  A
C293        H302   1.083       .  S
C294        C297   1.372       .  A
N295        C296   1.357       .  A
N295        H305   1.044       .  S
C296        C297   1.396       .  A
C297        H303   1.082       .  S
N298        C299   1.352       .  A
N298        H306   1.045       .  S
C299        C300   1.396       .  A
C300        H304   1.082       .  S
C307        C312   1.385       .  A
C307        C308   1.402       .  A
C307        N313   1.342       .  A
C308        C309   1.401       .  A
C308        H319   1.082       .  S
C309        C318   1.376       .  A
C309        C310   1.385       .  A
C310        C311   1.402       .  A
C310        N316   1.343       .  A
C311        C312   1.402       .  A
C311        H320   1.082       .  S
C312        C315   1.377       .  A
N313        C314   1.356       .  A
N313        H323   1.045       .  S
C314        C315   1.393       .  A
C315        H321   1.082       .  S
N316        C317   1.354       .  A
N316        H324   1.045       .  S
C317        C318   1.394       .  A
C318        H322   1.082       .  S
C325        C330   1.382       .  A
C325        C326   1.408       .  A
C325        N331   1.348       .  A
C326        C327   1.408       .  A
C326        H337   1.082       .  S
C327        C336   1.384       .  A
C327        C328   1.385       .  A
C328        C329   1.400       .  A
C328        N334   1.341       .  A
C329        C330   1.399       .  A
C329        H338   1.083       .  S
C330        C333   1.372       .  A
N331        C332   1.359       .  A
N331        H341   1.044       .  S
C332        C333   1.398       .  A
C333        H339   1.082       .  S
N334        C335   1.353       .  A
N334        H342   1.045       .  S
C335        C336   1.397       .  A
C336        H340   1.082       .  S
C343        C348   1.385       .  A
C343        C344   1.400       .  A
C343        N349   1.341       .  A
C344        C345   1.399       .  A
C344        H355   1.083       .  S
C345        C354   1.373       .  A
C345        C346   1.385       .  A
C346        C347   1.406       .  A
C346        N352   1.347       .  A
C347        C348   1.406       .  A
C347        H356   1.082       .  S
C348        C351   1.381       .  A
N349        C350   1.355       .  A
N349        H359   1.045       .  S
C350        C351   1.396       .  A
C351        H357   1.082       .  S
N352        C353   1.355       .  A
N352        H360   1.045       .  S
C353        C354   1.392       .  A
C354        H358   1.083       .  S
C361        C366   1.385       .  A
C361        C362   1.403       .  A
C361        N367   1.343       .  A
C362        C363   1.402       .  A
C362        H373   1.082       .  S
C363        C372   1.377       .  A
C363        C364   1.384       .  A
C364        C365   1.403       .  A
C364        N370   1.343       .  A
C365        C366   1.402       .  A
C365        H374   1.082       .  S
C366        C369   1.378       .  A
N367        C368   1.355       .  A
N367        H377   1.045       .  S
C368        C369   1.395       .  A
C369        H375   1.082       .  S
N370        C371   1.355       .  A
N370        H378   1.045       .  S
C371        C372   1.397       .  A
C372        H376   1.082       .  S
C379        C384   1.384       .  A
C379        C380   1.403       .  A
C379        N385   1.343       .  A
C380        C381   1.403       .  A
C380        H391   1.082       .  S
C381        C390   1.378       .  A
C381        C382   1.385       .  A
C382        C383   1.401       .  A
C382        N388   1.342       .  A
C383        C384   1.400       .  A
C383        H392   1.082       .  S
C384        C387   1.374       .  A
N385        C386   1.355       .  A
N385        H395   1.045       .  S
C386        C387   1.396       .  A
C387        H393   1.082       .  S
N388        C389   1.355       .  A
N388        H396   1.045       .  S
C389        C390   1.395       .  A
C390        H394   1.082       .  S
C397        C402   1.384       .  A
C397        C398   1.405       .  A
C397        N403   1.345       .  A
C398        C399   1.404       .  A
C398        H409   1.082       .  S
C399        C408   1.381       .  A
C399        C400   1.385       .  A
C400        C401   1.402       .  A
C400        N406   1.341       .  A
C401        C402   1.400       .  A
C401        H410   1.083       .  S
C402        C405   1.374       .  A
N403        C404   1.356       .  A
N403        H413   1.045       .  S
C404        C405   1.397       .  A
C405        H411   1.082       .  S
N406        C407   1.355       .  A
N406        H414   1.045       .  S
C407        C408   1.396       .  A
C408        H412   1.082       .  S
C415        C420   1.383       .  A
C415        C416   1.399       .  A
C415        N421   1.339       .  A
C416        C417   1.398       .  A
C416        H427   1.083       .  S
C417        C426   1.372       .  A
C417        C418   1.385       .  A
C418        C419   1.409       .  A
C418        N424   1.349       .  A
C419        C420   1.409       .  A
C419        H428   1.082       .  S
C420        C423   1.384       .  A
N421        C422   1.356       .  A
N421        H431   1.044       .  S
C422        C423   1.400       .  A
C423        H429   1.082       .  S
N424        C425   1.358       .  A
N424        H432   1.045       .  S
C425        C426   1.391       .  A
C426        H430   1.083       .  S
C433        C438   1.384       .  A
C433        C434   1.402       .  A
C433        N439   1.342       .  A
C434        C435   1.401       .  A
C434        H445   1.082       .  S
C435        C444   1.376       .  A
C435        C436   1.384       .  A
C436        C437   1.405       .  A
C436        N442   1.344       .  A
C437        C438   1.404       .  A
C437        H446   1.082       .  S
C438        C441   1.381       .  A
N439        C440   1.355       .  A
N439        H449   1.045       .  S
C440        C441   1.395       .  A
C441        H447   1.082       .  S
N442        C443   1.355       .  A
N442        H450   1.045       .  S
C443        C444   1.397       .  A
C444        H448   1.083       .  S
C451        C456   1.384       .  A
C451        C452   1.401       .  A
C451        N457   1.341       .  A
C452        C453   1.401       .  A
C452        H463   1.082       .  S
C453        C462   1.376       .  A
C453        C454   1.385       .  A
C454        C455   1.406       .  A
C454        N460   1.345       .  A
C455        C456   1.405       .  A
C455        H464   1.082       .  S
C456        C459   1.380       .  A
N457        C458   1.356       .  A
N457        H467   1.045       .  S
C458        C459   1.396       .  A
C459        H465   1.082       .  S
N460        C461   1.357       .  A
N460        H468   1.045       .  S
C461        C462   1.394       .  A
C462        H466   1.082       .  S
C469        C474   1.385       .  A
C469        C470   1.403       .  A
C469        N475   1.344       .  A
C470        C471   1.402       .  A
C470        H481   1.082       .  S
C471        C480   1.376       .  A
C471        C472   1.384       .  A
C472        C473   1.404       .  A
C472        N478   1.344       .  A
C473        C474   1.403       .  A
C473        H482   1.082       .  S
C474        C477   1.378       .  A
N475        C476   1.356       .  A
N475        H485   1.045       .  S
C476        C477   1.395       .  A
C477        H483   1.082       .  S
N478        C479   1.356       .  A
N478        H486   1.045       .  S
C479        C480   1.398       .  A
C480        H484   1.082       .  S
C487        C492   1.383       .  A
C487        C488   1.400       .  A
C487        N493   1.341       .  A
C488        C489   1.399       .  A
C488        H499   1.083       .  S
C489        C498   1.373       .  A
C489        C490   1.385       .  A
C490        C491   1.407       .  A
C490        N496   1.348       .  A
C491        C492   1.407       .  A
C491        H500   1.082       .  S
C492        C495   1.382       .  A
N493        C494   1.357       .  A
N493        H503   1.044       .  S
C494        C495   1.399       .  A
C495        H501   1.082       .  S
N496        C497   1.356       .  A
N496        H504   1.045       .  S
C497        C498   1.391       .  A
C498        H502   1.083       .  S
C505        C510   1.384       .  A
C505        C506   1.407       .  A
C505        N511   1.344       .  A
C506        C507   1.405       .  A
C506        H517   1.082       .  S
C507        C516   1.384       .  A
C507        C508   1.385       .  A
C508        C509   1.398       .  A
C508        N514   1.337       .  A
C509        C510   1.396       .  A
C509        H518   1.083       .  S
C510        C513   1.372       .  A
N511        C512   1.357       .  A
N511        H521   1.044       .  S
C512        C513   1.395       .  A
C513        H519   1.082       .  S
N514        C515   1.351       .  A
N514        H522   1.045       .  S
C515        C516   1.395       .  A
C516        H520   1.082       .  S
C523        C528   1.384       .  A
C523        C524   1.402       .  A
C523        N529   1.342       .  A
C524        C525   1.401       .  A
C524        H535   1.082       .  S
C525        C534   1.376       .  A
C525        C526   1.385       .  A
C526        C527   1.405       .  A
C526        N532   1.345       .  A
C527        C528   1.404       .  A
C527        H536   1.082       .  S
C528        C531   1.379       .  A
N529        C530   1.356       .  A
N529        H539   1.045       .  S
C530        C531   1.395       .  A
C531        H537   1.082       .  S
N532        C533   1.356       .  A
N532        H540   1.045       .  S
C533        C534   1.394       .  A
C534        H538   1.082       .  S
C541        C546   1.383       .  A
C541        C542   1.405       .  A
C541        N547   1.344       .  A
C542        C543   1.404       .  A
C542        H553   1.082       .  S
C543        C552   1.381       .  A
C543        C544   1.385       .  A
C544        C545   1.399       .  A
C544        N550   1.339       .  A
C545        C546   1.397       .  A
C545        H554   1.083       .  S
C546        C549   1.370       .  A
N547        C548   1.357       .  A
N547        H557   1.044       .  S
C548        C549   1.396       .  A
C549        H555   1.082       .  S
N550        C551   1.352       .  A
N550        H558   1.045       .  S
C551        C552   1.395       .  A
C552        H556   1.082       .  S
C559        C564   1.385       .  A
C559        C560   1.404       .  A
C559        N565   1.344       .  A
C560        C561   1.403       .  A
C560        H571   1.082       .  S
C561        C570   1.379       .  A
C561        C562   1.385       .  A
C562        C563   1.403       .  A
C562        N568   1.342       .  A
C563        C564   1.402       .  A
C563        H572   1.082       .  S
C564        C567   1.377       .  A
N565        C566   1.355       .  A
N565        H575   1.045       .  S
C566        C567   1.395       .  A
C567        H573   1.082       .  S
N568        C569   1.356       .  A
N568        H576   1.045       .  S
C569        C570   1.394       .  A
C570        H574   1.082       .  S
