geometry optimzed in LAMMPS
_audit_creation_date              2020-11-30 
_audit_creation_method            'lammps2cif' 
_symmetry_space_group_name_H-M    'P1' 
_symmetry_Int_Tables_number       1 
_symmetry_cell_setting            triclinic 
loop_ 
_symmetry_equiv_pos_as_xyz 
  x,y,z 
_cell_length_a                    26.07834745 
_cell_length_b                    42.373564913692114 
_cell_length_c                    42.37574610870707 
_cell_angle_alpha                 88.99077635665816 
_cell_angle_beta                  89.31118741856244 
_cell_angle_gamma                 91.11933471847478 
loop_ 
_atom_site_label 
_atom_site_type_symbol 
_atom_site_fract_x 
_atom_site_fract_y 
_atom_site_fract_z 
_atom_site_charge 
O1          O  0.65169068  0.32783393  0.29196718    -0.83000
C2          C  0.74426213  0.32385563  0.16878208     0.96300
O3          O  0.76623614  0.32830173  0.19450620    -0.72100
O4          O  0.72575951  0.37448967  0.22483848    -0.75700
Al5        Al  0.73979585  0.33255215  0.23621097     1.49000
C6          C  0.69161951  0.39113527  0.23709685     0.91600
O7          O  0.58848412  0.35031297  0.21368218    -0.81900
O8          O  0.62196981  0.26422966  0.22799740    -0.75500
Al9        Al  0.62335537  0.33744339  0.25112858     1.90100
O10         O  0.60465468  0.31006175  0.18356218    -0.74600
O11         O  0.71928631  0.26526750  0.21153740    -0.74400
O12         O  0.69976087  0.31217115  0.16834082    -0.80100
O13         O  0.76023374  0.29151760  0.24826579    -0.78300
O14         O  0.67500031  0.31991045  0.22943693    -1.14400
O15         O  0.73073299  0.34094058  0.27931851    -0.73600
C16         C  0.69662609  0.33575631  0.30001523     0.97100
C17         C  0.58217548  0.33553874  0.18838769     0.93500
Al18       Al  0.66257725  0.29050457  0.20055460     1.55600
O19         O  0.65310832  0.37885755  0.25112517    -0.78200
C20         C  0.75224634  0.26665765  0.23302438     0.97700
C21         C  0.58678118  0.27167621  0.24689191     0.92500
O22         O  0.58233136  0.29978444  0.25560702    -0.83600
O23         O  0.35885047  0.34620002  0.98941030    -0.83000
C24         C  0.26884683  0.33153582  0.10784812     0.96300
O25         O  0.26466628  0.34843807  0.08340695    -0.72100
O26         O  0.29400082  0.37764735  0.03173745    -0.75700
Al27       Al  0.27795407  0.33469030  0.04183166     1.49000
C28         C  0.33313643  0.39462806  0.03679641     0.91600
O29         O  0.44077140  0.34205504  0.06484180    -0.81900
O30         O  0.41320050  0.27827387  0.06206812    -0.75500
Al31       Al  0.39484629  0.34156900  0.02922442     1.90100
O32         O  0.39148721  0.32502719  0.10415712    -0.74600
O33         O  0.31528837  0.26479411  0.05993677    -0.74400
O34         O  0.29536790  0.30687387  0.10685677    -0.80100
O35         O  0.24774813  0.29343479  0.04995203    -0.78300
O36         O  0.34195930  0.32409454  0.05046102    -1.14400
O37         O  0.28457549  0.32280803  0.99955986    -0.73600
C38         C  0.31147588  0.33679039  0.48150570     0.97100
C39         C  0.43177376  0.33894162  0.09426171     0.93500
Al40       Al  0.35288017  0.29598208  0.08079970     1.55600
O41         O  0.37655100  0.38284350  0.04105328    -0.78200
C42         C  0.26918262  0.26699360  0.05190829     0.97700
C43         C  0.43212290  0.27946069  0.03443359     0.92500
O44         O  0.41965966  0.30146873  0.01553480    -0.83600
O45         O  0.15146576  0.37709546  0.23805950    -0.83000
C46         C  0.22728897  0.38239317  0.36371530     0.96300
O47         O  0.25379941  0.38070998  0.33878032    -0.72100
O48         O  0.21564606  0.33250070  0.30869079    -0.75700
Al49       Al  0.23257723  0.37409674  0.29617857     1.49000
C50         C  0.18332005  0.31450249  0.29574056     0.91600
O51         O  0.07980764  0.35443581  0.31437223    -0.81900
O52         O  0.12078350  0.44187153  0.29820889    -0.75500
Al53       Al  0.11837182  0.36744740  0.27802284     1.90100
O54         O  0.09020787  0.39741880  0.34188389    -0.74600
O55         O  0.21454258  0.43988858  0.32072350    -0.74400
O56         O  0.18229344  0.39231018  0.36215894    -0.80100
O57         O  0.25493765  0.41482852  0.28305721    -0.78300
O58         O  0.16782952  0.38589543  0.30057542    -1.14400
O59         O  0.22803584  0.36399834  0.25328042    -0.73600
C60         C  0.19593778  0.36740901  0.23169942     0.97100
C61         C  0.06802299  0.37134272  0.33732174     0.93500
Al62       Al  0.15332412  0.41542872  0.32837860     1.55600
O63         O  0.14744528  0.32578236  0.27942211    -0.78200
C64         C  0.24791244  0.43925109  0.29891501     0.97700
C65         C  0.08426796  0.43401800  0.28043836     0.92500
O66         O  0.07825676  0.40533790  0.27292438    -0.83600
O67         O  0.85528673  0.37833330  0.03722485    -0.83000
C68         C  0.76210052  0.38667922  0.41869236     0.96300
O69         O  0.73740933  0.38437574  0.44435470    -0.72100
O70         O  0.77739421  0.33600661  0.47261347    -0.75700
Al71       Al  0.76370465  0.37719255  0.48592733     1.49000
C72         C  0.81223853  0.31823464  0.48230050     0.91600
O73         O  0.91148313  0.36105869  0.45671306    -0.81900
O74         O  0.87657360  0.44709709  0.48076321    -0.75500
Al75       Al  0.88086190  0.37110102  0.49653450     1.90100
O76         O  0.90142858  0.40693109  0.43367829    -0.74600
O77         O  0.77988612  0.44460891  0.46127059    -0.74400
O78         O  0.80612169  0.39962771  0.41809868    -0.80100
O79         O  0.74263520  0.41747194  0.49999719    -0.78300
O80         O  0.82817276  0.39036780  0.47822247    -1.14400
O81         O  0.77491670  0.36508707  0.02814482    -0.73600
C82         C  0.81169336  0.36841278  0.04687510     0.97100
C83         C  0.91973956  0.37976208  0.43363889     0.93500
Al84       Al  0.83971794  0.42202303  0.45086289     1.55600
O85         O  0.85094183  0.32929754  0.49624341    -0.78200
C86         C  0.74704215  0.44233049  0.48328023     0.97700
C87         C  0.91567417  0.43826936  0.49582597     0.92500
O88         O  0.92273978  0.40904915  0.50066377    -0.83600
O89         O  0.09035560  0.05182904  0.01944535    -0.83000
C90         C  0.25070080  0.08231015  0.10328542     0.96300
O91         O  0.22494615  0.05660142  0.10438468    -0.72100
O92         O  0.12850444  0.06949141  0.10493611    -0.75700
Al93       Al  0.16678363  0.04286641  0.07954349     1.49000
C94         C  0.09154326  0.08660689  0.09795020     0.91600
O95         O  0.14713529  0.13208503  0.04102261    -0.81900
O96         O  0.22805049  0.07071468  0.99403035    -0.75500
Al97       Al  0.12259896  0.09069729  0.03132863     1.90100
O98         O  0.22651387  0.12530846  0.02619103    -0.74600
O99         O  0.27007007  0.04264471  0.04393287    -0.74400
O100        O  0.25678395  0.09735543  0.07752582    -0.80100
O101        O  0.20457513  0.01234612  0.05808697    -0.78300
O102        O  0.17612177  0.07193327  0.04898127    -1.14400
O103        O  0.10590644  0.02337292  0.06170659    -0.73600
C104        C  0.08169323  0.02729360  0.03622826     0.97100
C105        C  0.19046765  0.14331615  0.03285633     0.93500
Al106      Al  0.23987850  0.08286984  0.03656194     1.55600
O107        O  0.08204207  0.09282004  0.06934991    -0.78200
C108        C  0.25029384  0.01565126  0.04878874     0.97700
C109        C  0.19241719  0.08120772  0.47691412     0.92500
O110        O  0.15294732  0.09304093  0.98964860    -0.83600
O111        O  0.92021234  0.05105999  0.26965442    -0.83000
C112        C  0.77432474  0.08274070  0.17554806     0.96300
O113        O  0.80331956  0.05937359  0.17646124    -0.72100
O114        O  0.89785362  0.07880203  0.18144635    -0.75700
Al115      Al  0.85824841  0.04790326  0.20343702     1.49000
C116        C  0.93742352  0.09201070  0.19208976     0.91600
O117        O  0.87514738  0.13292790  0.24466782    -0.81900
O118        O  0.78288135  0.07088293  0.28673656    -0.75500
Al119      Al  0.89472267  0.09137901  0.25613985     1.90100
O120        O  0.79205559  0.12599486  0.25232591    -0.74600
O121        O  0.75160055  0.04156877  0.23535442    -0.74400
O122        O  0.76506645  0.09733554  0.20064103    -0.80100
O123        O  0.81966863  0.01470766  0.22180618    -0.78300
O124        O  0.84356709  0.07396984  0.23444772    -1.14400
O125        O  0.91730844  0.02991351  0.22297611    -0.73600
C126        C  0.93506119  0.03027719  0.25061960     0.97100
C127        C  0.83084662  0.14391989  0.24816194     0.93500
Al128      Al  0.77836638  0.08304469  0.24306905     1.55600
O129        O  0.94355314  0.09408802  0.22154787    -0.78200
C130        C  0.77304688  0.01582124  0.22956610     0.97700
C131        C  0.81418206  0.08361567  0.30540503     0.92500
O132        O  0.85738361  0.09372827  0.29534867    -0.83600
O133        O  0.41975464  0.15638777  0.26656265    -0.83000
C134        C  0.26001150  0.12116248  0.35228636     0.96300
O135        O  0.28831056  0.14557314  0.35430477    -0.72100
O136        O  0.38371895  0.13228757  0.35333565    -0.75700
Al137      Al  0.34618050  0.16072319  0.32926968     1.49000
C138        C  0.42345966  0.11823173  0.34549012     0.91600
O139        O  0.36917865  0.07566311  0.29122223    -0.81900
O140        O  0.28746064  0.13665414  0.24237923    -0.75500
Al141      Al  0.39167747  0.11678001  0.27965329     1.90100
O142        O  0.28951852  0.08085239  0.27594828    -0.74600
O143        O  0.24394878  0.16426706  0.29296974    -0.74400
O144        O  0.25431278  0.10775503  0.32623968    -0.80100
O145        O  0.30877802  0.19262074  0.30982664    -0.78300
O146        O  0.33723119  0.13397727  0.29793281    -1.14400
O147        O  0.40675378  0.18127369  0.31084365    -0.73600
C148        C  0.42870751  0.17962002  0.28403974     0.97100
C149        C  0.32628823  0.06375701  0.28427597     0.93500
Al150      Al  0.27405550  0.12352651  0.28538279     1.55600
O151        O  0.43447953  0.11528929  0.31658001    -0.78200
C152        C  0.26293176  0.19047863  0.30131831     0.97700
C153        C  0.32099214  0.12311206  0.22576926     0.92500
O154        O  0.36139361  0.11335261  0.23859782    -0.83600
O155        O  0.58552849  0.15767299  0.01945328    -0.83000
C156        C  0.73449184  0.12396770  0.42617245     0.96300
O157        O  0.70805521  0.14864213  0.42528856    -0.72100
O158        O  0.61229403  0.13198493  0.43034142    -0.75700
Al159      Al  0.65165568  0.16185927  0.45146634     1.49000
C160        C  0.57243770  0.11816424  0.44073973     0.91600
O161        O  0.62688825  0.07754002  0.49645546    -0.81900
O162        O  0.72108420  0.13674704  0.03557478    -0.75500
Al163      Al  0.60933590  0.11938310  0.50581351     1.90100
O164        O  0.70959953  0.08226191  0.50515938    -0.74600
O165        O  0.75690167  0.16587009  0.48297568    -0.74400
O166        O  0.73947091  0.10894081  0.45181891    -0.80100
O167        O  0.69063278  0.19413558  0.46931732    -0.78300
O168        O  0.66248711  0.13549285  0.48363827    -1.14400
O169        O  0.59197910  0.18134884  0.46969707    -0.73600
C170        C  0.57254953  0.18106752  0.49724271     0.97100
C171        C  0.66991043  0.06543771  0.50098577     0.93500
Al172      Al  0.72628651  0.12489947  0.49296202     1.55600
O173        O  0.56317330  0.11671278  0.47021726    -0.78200
C174        C  0.73679231  0.19228212  0.47726950     0.97700
C175        C  0.69020281  0.12405496  0.05531107     0.92500
O176        O  0.64641887  0.11428496  0.04666836    -0.83600
C177        C  0.45915549  0.10802723  0.37054638    -0.07300
C178        C  0.51072557  0.10335274  0.36245204    -0.18500
C179        C  0.54828194  0.10192758  0.38565432     0.09900
C180        C  0.53448139  0.10692264  0.41760243    -0.07300
C181        C  0.48242355  0.10687972  0.42605968    -0.18500
C182        C  0.44444580  0.10677987  0.40294152     0.09900
S183        S  0.61320403  0.09467567  0.37281697    -0.33500
S184        S  0.37786101  0.10598729  0.41548960    -0.33500
H185        H  0.38617191  0.10197916  0.44803752     0.27900
H186        H  0.62783852  0.07991630  0.40125605     0.27900
H187        H  0.52240081  0.10239157  0.33787167     0.18500
H188        H  0.47154547  0.10924510  0.45062257     0.18500
C189        C  0.79801044  0.09140436  0.33808056    -0.07300
C190        C  0.80520294  0.12291673  0.34715115    -0.18500
C191        C  0.78629138  0.13380752  0.37593643     0.09900
C192        C  0.75952427  0.11280903  0.39681491    -0.07300
C193        C  0.75380263  0.08091930  0.38838418    -0.18500
C194        C  0.77238890  0.07006455  0.35921920     0.09900
S195        S  0.79766850  0.17489020  0.38452782    -0.33500
S196        S  0.76240357  0.02892441  0.35048980    -0.33500
H197        H  0.80555829  0.02636223  0.33054831     0.27900
H198        H  0.80371516  0.17020381  0.41720656     0.27900
H199        H  0.82464029  0.13958739  0.33117599     0.18500
H200        H  0.73337574  0.06455455  0.40420529     0.18500
C201        C  0.70991734  0.11535132  0.08690595    -0.07300
C202        C  0.75324970  0.09636062  0.08712854    -0.18500
C203        C  0.77370614  0.08439448  0.11518737     0.09900
C204        C  0.75182146  0.09294424  0.14467704    -0.07300
C205        C  0.70813991  0.11214247  0.14440447    -0.18500
C206        C  0.68653922  0.12295211  0.11591944     0.09900
S207        S  0.82759370  0.05819033  0.11197377    -0.33500
S208        S  0.62995153  0.14660890  0.11823521    -0.33500
H209        H  0.63712255  0.16256338  0.08910949     0.27900
H210        H  0.83165898  0.05783104  0.07886114     0.27900
H211        H  0.77028394  0.08999161  0.06475391     0.18500
H212        H  0.69040315  0.11864299  0.16654035     0.18500
C213        C  0.31032350  0.11513183  0.19213997    -0.07300
C214        C  0.27805598  0.13441014  0.17412723    -0.18500
C215        C  0.25988675  0.12494741  0.14452035     0.09900
C216        C  0.27285843  0.09501806  0.13271316    -0.07300
C217        C  0.30605954  0.07618539  0.15017010    -0.18500
C218        C  0.32604464  0.08614648  0.17897908     0.09900
S219        S  0.21833915  0.15157846  0.12379538    -0.33500
S220        S  0.36912238  0.05954816  0.19832904    -0.33500
H221        H  0.40950772  0.08207127  0.19867583     0.27900
H222        H  0.18693152  0.12827537  0.11027844     0.27900
H223        H  0.26572056  0.15666230  0.18355608     0.18500
H224        H  0.31668515  0.05341490  0.14124235     0.18500
C225        C  0.20323199  0.08659008  0.44244799    -0.07300
C226        C  0.17974382  0.11233459  0.42730399    -0.18500
C227        C  0.19551761  0.12316727  0.39722339     0.09900
C228        C  0.23512060  0.10769672  0.38119786    -0.07300
C229        C  0.25549402  0.08032900  0.39484322    -0.18500
C230        C  0.24040637  0.06968763  0.42532065     0.09900
S231        S  0.16447524  0.15737492  0.38102115    -0.33500
S232        S  0.26898497  0.03464626  0.44179025    -0.33500
H233        H  0.28884186  0.02541953  0.91199173     0.27900
H234        H  0.17440809  0.15098428  0.34911378     0.27900
H235        H  0.15059227  0.12537552  0.43965545     0.18500
H236        H  0.28520570  0.06819377  0.38212448     0.18500
C237        C  0.05679635  0.09721573  0.12349558    -0.07300
C238        C  0.00776356  0.10758199  0.11536859    -0.18500
C239        C  0.96905315  0.11012050  0.13830883     0.09900
C240        C  0.97915105  0.10120976  0.16980394    -0.07300
C241        C  0.02971259  0.09540799  0.17865181    -0.18500
C242        C  0.06902529  0.09387059  0.15594567     0.09900
S243        S  0.90681404  0.12429984  0.12718649    -0.33500
S244        S  0.13377504  0.08695228  0.16906302    -0.33500
H245        H  0.12313021  0.08581416  0.20168521     0.27900
H246        H  0.91912735  0.13140653  0.09541277     0.27900
H247        H  0.99877788  0.11192575  0.09082186     0.18500
H248        H  0.03773023  0.08984705  0.20311456     0.18500
C249        C  0.71441030  0.46962103  0.48882048    -0.07300
C250        C  0.71224153  0.48231814  0.51909881    -0.18500
C251        C  0.69331443  0.01310306  0.52478660     0.09900
C252        C  0.67557960  0.03136937  0.49915061    -0.07300
C253        C  0.67275365  0.01835226  0.46916792    -0.18500
C254        C  0.69253764  0.48629441  0.46323606     0.09900
S255        S  0.69256744  0.02536403  0.06426855    -0.33500
S256        S  0.68937857  0.47086233  0.42390431    -0.33500
H257        H  0.68659738  0.43915746  0.43390688     0.27900
H258        H  0.65387878  0.04751637  0.05942377     0.27900
H259        H  0.72551621  0.46803863  0.04086054     0.18500
H260        H  0.65913334  0.03246711  0.44948817     0.18500
C261        C  0.80559767  0.28399124  0.47861489    -0.07300
C262        C  0.81065647  0.26405782  0.50519452    -0.18500
C263        C  0.79109501  0.23300571  0.50512995     0.09900
C264        C  0.76714538  0.22170128  0.47776433    -0.07300
C265        C  0.76657403  0.24073276  0.45045993    -0.18500
C266        C  0.78606386  0.27151071  0.45048544     0.09900
S267        S  0.79690579  0.21025612  0.04059731    -0.33500
S268        S  0.78377772  0.29383153  0.41404833    -0.33500
H269        H  0.82596319  0.31379767  0.42053574     0.27900
H270        H  0.74641690  0.19809256  0.03984555     0.27900
H271        H  0.82808017  0.27361961  0.02532445     0.18500
H272        H  0.74921557  0.23183116  0.42916521     0.18500
C273        C  0.04111532  0.00373006  0.02631915    -0.07300
C274        C  0.99542740  0.51547192  0.00681798    -0.18500
C275        C  0.96500824  0.49128304  0.49178152     0.09900
C276        C  0.95356956  0.46307158  0.00552787    -0.07300
C277        C  0.99570559  0.45150788  0.02254273    -0.18500
C278        C  0.04059275  0.97139624  0.03557065     0.09900
S279        S  0.92945047  0.50331449  0.45735414    -0.33500
S280        S  0.09186682  0.95389343  0.05749785    -0.33500
H281        H  0.13089014  0.96915585  0.03939872     0.27900
H282        H  0.95318481  0.53313367  0.45259254     0.27900
H283        H  0.01150173  0.53376673  0.49034865     0.18500
H284        H  0.99720739  0.42660172  0.02859869     0.18500
C285        C  0.27761875  0.46799770  0.29201123    -0.07300
C286        C  0.30596706  0.48125845  0.31651154    -0.18500
C287        C  0.32709066  0.01205932  0.31375073     0.09900
C288        C  0.31755539  0.02961123  0.28593832    -0.07300
C289        C  0.29061554  0.01555036  0.26123067    -0.18500
C290        C  0.27217929  0.48472580  0.26326929     0.09900
S291        S  0.36024036  0.02843581  0.34691866    -0.33500
S292        S  0.23641895  0.46947906  0.23043777    -0.33500
H293        H  0.19771942  0.45391630  0.24848751     0.27900
H294        H  0.40458562  0.03671673  0.32921182     0.27900
H295        H  0.30993670  0.46829916  0.33860761     0.18500
H296        H  0.28292813  0.02912391  0.23994134     0.18500
C297        C  0.19056739  0.28007494  0.29910647    -0.07300
C298        C  0.21585183  0.26974751  0.32621640    -0.18500
C299        C  0.23605492  0.23975536  0.32835535     0.09900
C300        C  0.23174298  0.21914097  0.30259248    -0.07300
C301        C  0.20157708  0.22794410  0.27680036    -0.18500
C302        C  0.18044767  0.25829075  0.27482653     0.09900
S303        S  0.26826201  0.22987941  0.36449703    -0.33500
S304        S  0.14449210  0.26938489  0.24029594    -0.33500
H305        H  0.14645991  0.24007583  0.22530040     0.27900
H306        H  0.25068837  0.19846617  0.36503256     0.27900
H307        H  0.22192000  0.28575448  0.34557680     0.18500
H308        H  0.19734870  0.21181743  0.25742752     0.18500
C309        C  0.04631038  0.45853494  0.27055709    -0.07300
C310        C  0.04522586  0.48715330  0.28706638    -0.18500
C311        C  0.00814468  0.00940454  0.28506705     0.09900
C312        C  0.97423020  0.00623846  0.25939651    -0.07300
C313        C  0.97120136  0.47644418  0.24159956    -0.18500
C314        C  0.00872488  0.45364631  0.24710241     0.09900
S315        S  0.00854595  0.04289824  0.31062904    -0.33500
S316        S  0.00684082  0.41937835  0.22254975    -0.33500
H317        H  0.05998466  0.42025547  0.21625573     0.27900
H318        H  0.01133072  0.06502964  0.28547090     0.27900
H319        H  0.07336919  0.49173564  0.30509848     0.18500
H320        H  0.94277597  0.47190493  0.22371254     0.18500
C321        C  0.02492844  0.36282972  0.35808316    -0.07300
C322        C  0.97970003  0.37856390  0.35185224    -0.18500
C323        C  0.94348253  0.38321511  0.37563894     0.09900
C324        C  0.95215680  0.37087131  0.40647584    -0.07300
C325        C  0.99509211  0.35201368  0.41166876    -0.18500
C326        C  0.03200880  0.34821605  0.38779287     0.09900
S327        S  0.88917494  0.40727544  0.36602122    -0.33500
S328        S  0.08932343  0.32707118  0.39734580    -0.33500
H329        H  0.10454515  0.32114246  0.36610590     0.27900
H330        H  0.89372444  0.40555279  0.33297654     0.27900
H331        H  0.97533805  0.39011552  0.32903302     0.18500
H332        H  0.00184977  0.34214174  0.43497786     0.18500
C333        C  0.20144458  0.17755252  0.03241093    -0.07300
C334        C  0.17882426  0.19623175  0.05561205    -0.18500
C335        C  0.19870803  0.22638143  0.06189204     0.09900
C336        C  0.24118481  0.23813009  0.04410386    -0.07300
C337        C  0.26081197  0.22065322  0.01926285    -0.18500
C338        C  0.24094650  0.19083433  0.01281483     0.09900
S339        S  0.17108906  0.24744425  0.09435540    -0.33500
S340        S  0.26844214  0.17096227  0.97951663    -0.33500
H341        H  0.22257750  0.15508254  0.97218309     0.27900
H342        H  0.21716682  0.26140456  0.10453950     0.27900
H343        H  0.14840858  0.18637735  0.07064047     0.18500
H344        H  0.29267037  0.23013011  0.00511955     0.18500
C345        C  0.32599448  0.42848137  0.03875349    -0.07300
C346        C  0.31960719  0.44078538  0.06890851    -0.18500
C347        C  0.29693468  0.46997330  0.07288267     0.09900
C348        C  0.28046280  0.48710926  0.04616816    -0.07300
C349        C  0.28999249  0.47577889  0.01590059    -0.18500
C350        C  0.31257515  0.44649048  0.01190855     0.09900
S351        S  0.28697054  0.48327833  0.11254365    -0.33500
S352        S  0.34522062  0.44007247  0.48100489    -0.33500
H353        H  0.36022862  0.41184121  0.97892163     0.27900
H354        H  0.29610289  0.51512134  0.10437091     0.27900
H355        H  0.32901359  0.42662647  0.08953877     0.18500
H356        H  0.27724543  0.48897272  0.99541372     0.18500
C357        C  0.53692689  0.20470862  0.00981586    -0.07300
C358        C  0.54236239  0.23487502  0.99548317    -0.18500
C359        C  0.50972504  0.25971268  0.00317813     0.09900
C360        C  0.46896378  0.25448210  0.02512286    -0.07300
C361        C  0.46372050  0.22436772  0.03957632    -0.18500
C362        C  0.49655354  0.19961106  0.03208675     0.09900
S363        S  0.52435350  0.29789993  0.98561379    -0.33500
S364        S  0.48284770  0.16174622  0.05063535    -0.33500
H365        H  0.48849890  0.14480424  0.02257825     0.27900
H366        H  0.51702944  0.31437383  0.01381698     0.27900
H367        H  0.56648328  0.23987678  0.47241064     0.18500
H368        H  0.43279307  0.21974445  0.05644318     0.18500
C369        C  0.24469960  0.34039256  0.13842088    -0.07300
C370        C  0.25948164  0.32328805  0.16531482    -0.18500
C371        C  0.24340589  0.33133793  0.19550596     0.09900
C372        C  0.21113490  0.35755560  0.19959575    -0.07300
C373        C  0.19430225  0.37410289  0.17281795    -0.18500
C374        C  0.21052407  0.36582341  0.14232473     0.09900
S375        S  0.26561449  0.30739630  0.22824919    -0.33500
S376        S  0.18611340  0.38873287  0.10981381    -0.33500
H377        H  0.17236319  0.36204799  0.09225376     0.27900
H378        H  0.27889949  0.28078191  0.21075543     0.27900
H379        H  0.28548014  0.30385372  0.16296498     0.18500
H380        H  0.16903793  0.39387781  0.17568195     0.18500
C381        C  0.29134628  0.34676029  0.45062959    -0.07300
C382        C  0.24368194  0.36154410  0.45099186    -0.18500
C383        C  0.22246956  0.37439663  0.42358351     0.09900
C384        C  0.24916079  0.37177714  0.39440707    -0.07300
C385        C  0.29744515  0.35717587  0.39427411    -0.18500
C386        C  0.31875036  0.34477824  0.42197884     0.09900
S387        S  0.16267204  0.39515305  0.42730143    -0.33500
S388        S  0.38003086  0.32598093  0.41909232    -0.33500
H389        H  0.37959575  0.30946473  0.94114999     0.27900
H390        H  0.15103687  0.38626485  0.45875339     0.27900
H391        H  0.22369903  0.36402290  0.47333375     0.18500
H392        H  0.31862301  0.35485355  0.37231988     0.18500
C393        C  0.78032567  0.23811566  0.24046671    -0.07300
C394        C  0.81513734  0.22708648  0.21793890    -0.18500
C395        C  0.83670633  0.19730114  0.22138431     0.09900
C396        C  0.82232987  0.17802178  0.24761006    -0.07300
C397        C  0.78960028  0.18987990  0.27093429    -0.18500
C398        C  0.76799087  0.21956070  0.26747687     0.09900
S399        S  0.87682470  0.18363194  0.18977349    -0.33500
S400        S  0.72159368  0.23110116  0.29684046    -0.33500
H401        H  0.68879520  0.24679694  0.27602186     0.27900
H402        H  0.91628343  0.17396019  0.20985949     0.27900
H403        H  0.82386359  0.24123321  0.19691876     0.18500
H404        H  0.77791039  0.17497573  0.29090571     0.18500
C405        C  0.69834767  0.42536216  0.23570386    -0.07300
C406        C  0.70886925  0.43943799  0.20616608    -0.18500
C407        C  0.72728705  0.47051456  0.20384672     0.09900
C408        C  0.73569083  0.48745239  0.23166162    -0.07300
C409        C  0.72184574  0.47424531  0.26106813    -0.18500
C410        C  0.70284508  0.44326414  0.26338316     0.09900
S411        S  0.74230639  0.48796757  0.16551596    -0.33500
S412        S  0.69199657  0.42654453  0.30233007    -0.33500
H413        H  0.64233561  0.41518767  0.29575435     0.27900
H414        H  0.73369057  0.96172397  0.14617093     0.27900
H415        H  0.70502863  0.42549475  0.18510472     0.18500
H416        H  0.72889817  0.48738226  0.28236183     0.18500
C417        C  0.54817800  0.24755287  0.25734641    -0.07300
C418        C  0.52284908  0.23022456  0.23411316    -0.18500
C419        C  0.48198381  0.20943290  0.24179399     0.09900
C420        C  0.46728862  0.20431286  0.27384414    -0.07300
C421        C  0.49262222  0.22194035  0.29706131    -0.18500
C422        C  0.53260267  0.24341218  0.28919589     0.09900
S423        S  0.44838223  0.19194360  0.20928463    -0.33500
S424        S  0.56329789  0.26396702  0.32098330    -0.33500
H425        H  0.61217657  0.26601794  0.30669287     0.27900
H426        H  0.39929325  0.19565965  0.22275029     0.27900
H427        H  0.53342150  0.23406525  0.20949693     0.18500
H428        H  0.48218939  0.21841035  0.32171916     0.18500
C429        C  0.71045011  0.34218645  0.33327031    -0.07300
C430        C  0.67389970  0.35451603  0.35409305    -0.18500
C431        C  0.68879019  0.36857185  0.38263925     0.09900
C432        C  0.74167744  0.37190445  0.38964271    -0.07300
C433        C  0.77735896  0.35791314  0.36958655    -0.18500
C434        C  0.76240153  0.34212604  0.34256096     0.09900
S435        S  0.63998459  0.38315171  0.40884488    -0.33500
S436        S  0.81169980  0.32139736  0.32161016    -0.33500
H437        H  0.77854069  0.29694419  0.31189520     0.27900
H438        H  0.59766940  0.36973768  0.39332305     0.27900
H439        H  0.63400477  0.35450292  0.34730556     0.18500
H440        H  0.81738825  0.35758209  0.37601622     0.18500
C441        C  0.77008767  0.33312313  0.13886114    -0.07300
C442        C  0.79374872  0.36321195  0.13595128    -0.18500
C443        C  0.80983128  0.37544489  0.10635639     0.09900
C444        C  0.80295947  0.35687221  0.07940535    -0.07300
C445        C  0.78229927  0.32615006  0.08280261    -0.18500
C446        C  0.76641655  0.31398657  0.11210404     0.09900
S447        S  0.83500391  0.41537656  0.10426596    -0.33500
S448        S  0.74170933  0.27390241  0.11373182    -0.33500
H449        H  0.75937526  0.26716067  0.14431990     0.27900
H450        H  0.81529981  0.42296027  0.07439892     0.27900
H451        H  0.79662806  0.37804289  0.15646420     0.18500
H452        H  0.77772892  0.31157625  0.06219440     0.18500
C453        C  0.54716441  0.34691587  0.16379287    -0.07300
C454        C  0.49660450  0.35404475  0.17213104    -0.18500
C455        C  0.45828606  0.35508509  0.14910925     0.09900
C456        C  0.47100164  0.34816069  0.11740630    -0.07300
C457        C  0.52262853  0.34524132  0.10873593    -0.18500
C458        C  0.56077029  0.34502189  0.13148518     0.09900
S459        S  0.39337466  0.36443005  0.16055109    -0.33500
S460        S  0.62599055  0.34110567  0.11788171    -0.33500
H461        H  0.64713924  0.35885384  0.14247409     0.27900
H462        H  0.40397368  0.37190906  0.19205131     0.27900
H463        H  0.48647589  0.35642622  0.19681525     0.18500
H464        H  0.53316971  0.34111046  0.08435672     0.18500
O465        O  0.64859456  0.33050407  0.79235101    -0.83000
C466        C  0.73981489  0.32435986  0.66950220     0.96300
O467        O  0.76270532  0.32838985  0.69504681    -0.72100
O468        O  0.72311395  0.37566346  0.72400673    -0.75700
Al469      Al  0.73662774  0.33418972  0.73675272     1.49000
C470        C  0.68985443  0.39307444  0.73606200     0.91600
O471        O  0.58643429  0.35280431  0.71387148    -0.81900
O472        O  0.62004291  0.26620457  0.73124429    -0.75500
Al473      Al  0.62049250  0.34011775  0.75158793     1.90100
O474        O  0.59977235  0.31072684  0.68572243    -0.74600
O475        O  0.71640814  0.26711972  0.71312665    -0.74400
O476        O  0.69475729  0.31342397  0.66957052    -0.80100
O477        O  0.75640544  0.29342246  0.75012734    -0.78300
O478        O  0.67174810  0.32183524  0.73041344    -1.14400
O479        O  0.72758697  0.34387742  0.77958047    -0.73600
C480        C  0.69357521  0.33841559  0.80030039     0.97100
C481        C  0.57870079  0.33689184  0.68945211     0.93500
Al482      Al  0.65886986  0.29190129  0.70245275     1.55600
O483        O  0.65156819  0.38150371  0.75102054    -0.78200
C484        C  0.74901980  0.26854579  0.73483748     0.97700
C485        C  0.58366204  0.27408888  0.74907433     0.92500
O486        O  0.57817869  0.30261982  0.75636373    -0.83600
O487        O  0.35496758  0.34670963  0.49056811    -0.83000
C488        C  0.26767138  0.32922874  0.60895007     0.96300
O489        O  0.26254031  0.34606940  0.58461006    -0.72100
O490        O  0.29019273  0.37659047  0.53382988    -0.75700
Al491      Al  0.27512726  0.33328550  0.54293185     1.49000
C492        C  0.32875490  0.39363602  0.54006827     0.91600
O493        O  0.43855670  0.34124632  0.56502667    -0.81900
O494        O  0.41106793  0.27712269  0.56042253    -0.75500
Al495      Al  0.39161082  0.34140506  0.52989251     1.90100
O496        O  0.39045331  0.32271122  0.60416350    -0.74600
O497        O  0.31325668  0.26322390  0.55969228    -0.74400
O498        O  0.29457844  0.30470307  0.60772270    -0.80100
O499        O  0.24548759  0.29182054  0.55044435    -0.78300
O500        O  0.33942293  0.32291146  0.55098763    -1.14400
O501        O  0.28126342  0.32236016  0.50038533    -0.73600
C502        C  0.31485733  0.33693940  0.98049521     0.97100
C503        C  0.42997813  0.33747943  0.59440253     0.93500
Al504      Al  0.35136076  0.29419916  0.58060410     1.55600
O505        O  0.37261636  0.38210855  0.54329602    -0.78200
C506        C  0.26698050  0.26540558  0.55207858     0.97700
C507        C  0.42919680  0.27927380  0.53258348     0.92500
O508        O  0.41652697  0.30202102  0.51471465    -0.83600
O509        O  0.15205375  0.37791788  0.73816924    -0.83000
C510        C  0.22759209  0.38421336  0.86379109     0.96300
O511        O  0.25397004  0.38313015  0.83876608    -0.72100
O512        O  0.21511280  0.33430762  0.80961818    -0.75700
Al513      Al  0.23223453  0.37569018  0.79641447     1.49000
C514        C  0.18248181  0.31619650  0.79701053     0.91600
O515        O  0.07783821  0.35713252  0.81381315    -0.81900
O516        O  0.12096149  0.44363868  0.79853505    -0.75500
Al517      Al  0.11806341  0.36927177  0.77797817     1.90100
O518        O  0.08988711  0.39948595  0.84197812    -0.74600
O519        O  0.21471803  0.44140593  0.82067719    -0.74400
O520        O  0.18229960  0.39374378  0.86238962    -0.80100
O521        O  0.25414429  0.41639191  0.78252876    -0.78300
O522        O  0.16745482  0.38755697  0.80070554    -1.14400
O523        O  0.22803862  0.36446331  0.75386482    -0.73600
C524        C  0.19617051  0.36754982  0.73217139     0.97100
C525        C  0.06612770  0.37411050  0.83668402     0.93500
Al526      Al  0.15329088  0.41709658  0.82855606     1.55600
O527        O  0.14648598  0.32737229  0.78063283    -0.78200
C528        C  0.24722200  0.44090054  0.79834135     0.97700
C529        C  0.08519783  0.43618418  0.78006027     0.92500
O530        O  0.07917283  0.40764333  0.77194447    -0.83600
O531        O  0.85535812  0.37762826  0.53859214    -0.83000
C532        C  0.75837872  0.38794665  0.91910765     0.96300
O533        O  0.73432562  0.38479239  0.94491744    -0.72100
O534        O  0.77628640  0.33617000  0.97161175    -0.75700
Al535      Al  0.76190764  0.37701856  0.98595407     1.49000
C536        C  0.81143513  0.31851441  0.98110021     0.91600
O537        O  0.90810412  0.36269198  0.95459585    -0.81900
O538        O  0.87301023  0.44839697  0.98074865    -0.75500
Al539      Al  0.87930312  0.37209993  0.99492067     1.90100
O540        O  0.89740811  0.40909445  0.93273477    -0.74600
O541        O  0.77583761  0.44500030  0.96244886    -0.74400
O542        O  0.80193284  0.40144692  0.91823890    -0.80100
O543        O  0.74012130  0.41676135  0.00099464    -0.78300
O544        O  0.82570265  0.39111920  0.97769094    -1.14400
O545        O  0.77489046  0.36591349  0.52837618    -0.73600
C546        C  0.81099511  0.36852622  0.54766119     0.97100
C547        C  0.91579583  0.38194202  0.93191199     0.93500
Al548      Al  0.83582079  0.42341701  0.95087557     1.55600
O549        O  0.85014883  0.32987177  0.99486942    -0.78200
C550        C  0.74353878  0.44192885  0.98467612     0.97700
C551        C  0.91319214  0.43962486  0.99467348     0.92500
O552        O  0.92082049  0.41031490  0.99859705    -0.83600
O553        O  0.08798929  0.05087244  0.51831137    -0.83000
C554        C  0.24586045  0.08123167  0.60418299     0.96300
O555        O  0.21947913  0.05575012  0.60513178    -0.72100
O556        O  0.12405451  0.07011575  0.60424142    -0.75700
Al557      Al  0.16144996  0.04249309  0.57980751     1.49000
C558        C  0.08740831  0.08720811  0.59674327     0.91600
O559        O  0.14378242  0.13099888  0.54012320    -0.81900
O560        O  0.22601959  0.06927200  0.49458431    -0.75500
Al561      Al  0.11959303  0.08974513  0.53032598     1.90100
O562        O  0.22382585  0.12408885  0.52660683    -0.74600
O563        O  0.26519047  0.04084141  0.54507604    -0.74400
O564        O  0.25260759  0.09607753  0.57836159    -0.80100
O565        O  0.19875117  0.01117403  0.55922791    -0.78300
O566        O  0.17230249  0.07100995  0.54890156    -1.14400
O567        O  0.10004304  0.02357616  0.56175285    -0.73600
C568        C  0.07728194  0.02704897  0.53567804     0.97100
C569        C  0.18745276  0.14212302  0.53268151     0.93500
Al570      Al  0.23647186  0.08148215  0.53721508     1.55600
O571        O  0.07761149  0.09230859  0.56794208    -0.78200
C572        C  0.24474337  0.01403929  0.55029688     0.97700
C573        C  0.19342522  0.08256235  0.97703693     0.92500
O574        O  0.15150203  0.09184870  0.48887781    -0.83600
O575        O  0.92044498  0.05352256  0.76881538    -0.83000
C576        C  0.77370266  0.08603304  0.67533045     0.96300
O577        O  0.80265344  0.06261995  0.67610780    -0.72100
O578        O  0.89684152  0.08245112  0.68104279    -0.75700
Al579      Al  0.85807712  0.05110427  0.70281615     1.49000
C580        C  0.93638301  0.09573058  0.69158637     0.91600
O581        O  0.87480838  0.13562317  0.74515780    -0.81900
O582        O  0.78290641  0.07292189  0.78633246    -0.75500
Al583      Al  0.89461728  0.09398706  0.75590559     1.90100
O584        O  0.79165437  0.12863249  0.75269884    -0.74600
O585        O  0.75156827  0.04404061  0.73458114    -0.74400
O586        O  0.76465387  0.10049242  0.70054253    -0.80100
O587        O  0.81998544  0.01755729  0.72100639    -0.78300
O588        O  0.84340110  0.07679170  0.73411063    -1.14400
O589        O  0.91785534  0.03300813  0.72192233    -0.73600
C590        C  0.93545888  0.03291992  0.74964153     0.97100
C591        C  0.83049637  0.14656437  0.74869977     0.93500
Al592      Al  0.77816040  0.08564242  0.74286395     1.55600
O593        O  0.94307151  0.09736528  0.72105494    -0.78200
C594        C  0.77313122  0.01838046  0.72836002     0.97700
C595        C  0.81421319  0.08540325  0.80515880     0.92500
O596        O  0.85742597  0.09567290  0.79524993    -0.83600
O597        O  0.41853631  0.15592992  0.76739364    -0.83000
C598        C  0.25706244  0.12277315  0.85221516     0.96300
O599        O  0.28480813  0.14745355  0.85389550    -0.72100
O600        O  0.37966668  0.13330030  0.85409803    -0.75700
Al601      Al  0.34363755  0.16166745  0.82923025     1.49000
C602        C  0.41952626  0.11902369  0.84706411     0.91600
O603        O  0.36492819  0.07583530  0.79280100    -0.81900
O604        O  0.28564655  0.13732510  0.74257367    -0.75500
Al605      Al  0.38894792  0.11661282  0.78074822     1.90100
O606        O  0.28606792  0.08165235  0.77637268    -0.74600
O607        O  0.24182376  0.16557496  0.79318336    -0.74400
O608        O  0.25162392  0.10895663  0.82638888    -0.80100
O609        O  0.30781746  0.19356510  0.80879791    -0.78300
O610        O  0.33470256  0.13456778  0.79830012    -1.14400
O611        O  0.40500607  0.18136079  0.81119891    -0.73600
C612        C  0.42756646  0.17936499  0.78463730     0.97100
C613        C  0.32187115  0.06426130  0.78564376     0.93500
Al614      Al  0.27148406  0.12450243  0.78558966     1.55600
O615        O  0.43104759  0.11522917  0.81828747    -0.78200
C616        C  0.26154630  0.19173330  0.80120764     0.97700
C617        C  0.31871722  0.12299388  0.72626641     0.92500
O618        O  0.35889289  0.11296664  0.73933280    -0.83600
O619        O  0.58522445  0.16003416  0.51706743    -0.83000
C620        C  0.73316445  0.12401343  0.92617036     0.96300
O621        O  0.70525713  0.14804440  0.92561019    -0.72100
O622        O  0.60965604  0.13134009  0.93178470    -0.75700
Al623      Al  0.65011481  0.16096550  0.95281215     1.49000
C624        C  0.56993874  0.11764516  0.94255554     0.91600
O625        O  0.62822821  0.07559845  0.99639212    -0.81900
O626        O  0.72024908  0.13859271  0.53494610    -0.75500
Al627      Al  0.60993347  0.11729661  0.00693524     1.90100
O628        O  0.71109363  0.08101006  0.00450664    -0.74600
O629        O  0.75644112  0.16555436  0.98380031    -0.74400
O630        O  0.73981355  0.10909846  0.95170094    -0.80100
O631        O  0.68979892  0.19334797  0.97014169    -0.78300
O632        O  0.66235149  0.13424624  0.98450482    -1.14400
O633        O  0.59162767  0.18018526  0.97252802    -0.73600
C634        C  0.57324787  0.17950125  0.00034805     0.97100
C635        C  0.67175174  0.06382113  0.00039942     0.93500
Al636      Al  0.72669826  0.12407941  0.99318561     1.55600
O637        O  0.56225017  0.11534411  0.97211438    -0.78200
C638        C  0.73607855  0.19185693  0.97789102     0.97700
C639        C  0.68883106  0.12665923  0.55480955     0.92500
O640        O  0.64484717  0.11714503  0.54613558    -0.83600
C641        C  0.45459781  0.10951382  0.87288521    -0.07300
C642        C  0.50535161  0.10199843  0.86512951    -0.18500
C643        C  0.54303899  0.10038717  0.88829245     0.09900
C644        C  0.53037379  0.10754481  0.91990704    -0.07300
C645        C  0.47874391  0.11090622  0.92833069    -0.18500
C646        C  0.44048086  0.11151743  0.90535900     0.09900
S647        S  0.60692194  0.09008163  0.87583306    -0.33500
S648        S  0.37453872  0.11592004  0.91832201    -0.33500
H649        H  0.38339239  0.11618627  0.95099332     0.27900
H650        H  0.62097210  0.07682178  0.90509971     0.27900
H651        H  0.51648986  0.09886055  0.84068497     0.18500
H652        H  0.46880510  0.11534462  0.95271239     0.18500
C653        C  0.79783429  0.09280517  0.83787331    -0.07300
C654        C  0.80355736  0.12438646  0.84699178    -0.18500
C655        C  0.78371190  0.13497019  0.87565821     0.09900
C656        C  0.75812086  0.11345791  0.89656867    -0.07300
C657        C  0.75390184  0.08150988  0.88809122    -0.18500
C658        C  0.77295706  0.07103967  0.85889524     0.09900
S659        S  0.79209968  0.17636310  0.88394123    -0.33500
S660        S  0.76446280  0.02984002  0.84995100    -0.33500
H661        H  0.80743537  0.02800727  0.82975009     0.27900
H662        H  0.79886609  0.17207378  0.91660362     0.27900
H663        H  0.82249855  0.14133616  0.83110810     0.18500
H664        H  0.73426111  0.06477397  0.90390312     0.18500
C665        C  0.70845868  0.11822839  0.58656418    -0.07300
C666        C  0.75168199  0.09915060  0.58688445    -0.18500
C667        C  0.77227219  0.08736346  0.61495762     0.09900
C668        C  0.75100163  0.09634514  0.64447301    -0.07300
C669        C  0.70760579  0.11583703  0.64415818    -0.18500
C670        C  0.68567948  0.12639043  0.61560975     0.09900
S671        S  0.82595582  0.06105812  0.61159094    -0.33500
S672        S  0.62963416  0.15053111  0.61788377    -0.33500
H673        H  0.63628017  0.16570728  0.58831760     0.27900
H674        H  0.82187851  0.05499278  0.57917542     0.27900
H675        H  0.76875811  0.09263214  0.56456404     0.18500
H676        H  0.69032087  0.12273075  0.66629346     0.18500
C677        C  0.30734163  0.11422192  0.69288681    -0.07300
C678        C  0.27902771  0.13460312  0.67353242    -0.18500
C679        C  0.26042099  0.12499313  0.64402539     0.09900
C680        C  0.26837965  0.09376829  0.63376004    -0.07300
C681        C  0.29727825  0.07368446  0.65279636    -0.18500
C682        C  0.31819067  0.08373851  0.68133476     0.09900
S683        S  0.22466789  0.15326039  0.62140324    -0.33500
S684        S  0.35651943  0.05564589  0.70233881    -0.33500
H685        H  0.40019183  0.07569123  0.70195682     0.27900
H686        H  0.18848217  0.13143638  0.60987436     0.27900
H687        H  0.27032371  0.15799768  0.68175704     0.18500
H688        H  0.30425148  0.04987557  0.64523943     0.18500
C689        C  0.20254799  0.08825735  0.94258121    -0.07300
C690        C  0.18089577  0.11525763  0.92866615    -0.18500
C691        C  0.19589572  0.12620226  0.89854273     0.09900
C692        C  0.23256846  0.10949939  0.88123497    -0.07300
C693        C  0.25077983  0.08096175  0.89370291    -0.18500
C694        C  0.23638833  0.07018040  0.92423799     0.09900
S695        S  0.16785387  0.16211864  0.88396932    -0.33500
S696        S  0.26130377  0.03346940  0.93933356    -0.33500
H697        H  0.30409642  0.02967332  0.41700319     0.27900
H698        H  0.17479885  0.15612171  0.85169181     0.27900
H699        H  0.15405484  0.12912328  0.94203218     0.18500
H700        H  0.27840078  0.06800830  0.88007888     0.18500
C701        C  0.05364711  0.09910201  0.62214269    -0.07300
C702        C  0.00475334  0.10973776  0.61417095    -0.18500
C703        C  0.96681702  0.11335107  0.63741315     0.09900
C704        C  0.97757961  0.10518050  0.66903683    -0.07300
C705        C  0.02826122  0.09945133  0.67756996    -0.18500
C706        C  0.06681590  0.09686707  0.65455520     0.09900
S707        S  0.90456782  0.12762161  0.62646886    -0.33500
S708        S  0.13160132  0.08953848  0.66737507    -0.33500
H709        H  0.12298480  0.09385046  0.69983540     0.27900
H710        H  0.91612554  0.13365013  0.59439412     0.27900
H711        H  0.99519890  0.11335287  0.58960157     0.18500
H712        H  0.03686161  0.09437043  0.70205311     0.18500
C713        C  0.71057566  0.46880967  0.99091386    -0.07300
C714        C  0.70925043  0.48117769  0.02134672    -0.18500
C715        C  0.69414492  0.01122031  0.02440906     0.09900
C716        C  0.67851796  0.02972974  0.99834928    -0.07300
C717        C  0.67920466  0.01705226  0.96816211    -0.18500
C718        C  0.68876967  0.48593711  0.96562134     0.09900
S719        S  0.69583795  0.02770276  0.56444797    -0.33500
S720        S  0.68522292  0.47123162  0.92601400    -0.33500
H721        H  0.68224986  0.43938521  0.93549954     0.27900
H722        H  0.65745519  0.05026621  0.56071677     0.27900
H723        H  0.72834784  0.46950744  0.53887759     0.18500
H724        H  0.66729466  0.03130354  0.94813565     0.18500
C725        C  0.80488837  0.28410185  0.97760141    -0.07300
C726        C  0.81150646  0.26416789  0.00405314    -0.18500
C727        C  0.79199703  0.23303266  0.00452107     0.09900
C728        C  0.76617780  0.22159156  0.97782254    -0.07300
C729        C  0.76405156  0.24064092  0.95053026    -0.18500
C730        C  0.78380214  0.27143076  0.94996555     0.09900
S731        S  0.79294554  0.21020552  0.54133432    -0.33500
S732        S  0.78026194  0.29346697  0.91336427    -0.33500
H733        H  0.82283794  0.31338754  0.91907771     0.27900
H734        H  0.74162494  0.19963862  0.53970170     0.27900
H735        H  0.82578879  0.27347658  0.52687995     0.18500
H736        H  0.74552907  0.23167315  0.92963304     0.18500
C737        C  0.03605861  0.00397507  0.52556131    -0.07300
C738        C  0.00485749  0.51128752  0.50234426    -0.18500
C739        C  0.95377457  0.49588330  0.99775949     0.09900
C740        C  0.95507671  0.46180402  0.50721667    -0.07300
C741        C  0.98646215  0.45345325  0.53279774    -0.18500
C742        C  0.03000764  0.97284293  0.53813751     0.09900
S743        S  0.90201593  0.51358157  0.97606149    -0.33500
S744        S  0.07400494  0.95590106  0.56584032    -0.33500
H745        H  0.11795120  0.96625204  0.54873342     0.27900
H746        H  0.92091974  0.54490031  0.97588956     0.27900
H747        H  0.99492812  0.54045168  0.00107644     0.18500
H748        H  0.98013337  0.43085193  0.54472229     0.18500
C749        C  0.27609104  0.46987155  0.79091817    -0.07300
C750        C  0.30746629  0.48235436  0.81442701    -0.18500
C751        C  0.32321608  0.01237015  0.81520061     0.09900
C752        C  0.31206712  0.03017404  0.78775973    -0.07300
C753        C  0.28399603  0.01618917  0.76348555    -0.18500
C754        C  0.26676358  0.48767730  0.76324455     0.09900
S755        S  0.35752400  0.02866570  0.84795680    -0.33500
S756        S  0.22607276  0.47400690  0.73184076    -0.33500
H757        H  0.19307657  0.45441335  0.75023034     0.27900
H758        H  0.40170824  0.03619137  0.82978038     0.27900
H759        H  0.31401884  0.46869117  0.83582499     0.18500
H760        H  0.27438342  0.02991092  0.74264669     0.18500
C761        C  0.18984910  0.28172494  0.80058669    -0.07300
C762        C  0.21812689  0.27175735  0.82666355    -0.18500
C763        C  0.23843856  0.24177661  0.82838767     0.09900
C764        C  0.23095047  0.22064327  0.80327770    -0.07300
C765        C  0.19783272  0.22907589  0.77880965    -0.18500
C766        C  0.17682572  0.25948490  0.77721375     0.09900
S767        S  0.27482710  0.23265834  0.86315827    -0.33500
S768        S  0.13736364  0.27001975  0.74404677    -0.33500
H769        H  0.13495637  0.23992308  0.73059593     0.27900
H770        H  0.25504096  0.20179993  0.86595605     0.27900
H771        H  0.22650538  0.28804208  0.84547274     0.18500
H772        H  0.19120585  0.21261088  0.75996913     0.18500
C773        C  0.04798477  0.46110377  0.77019417    -0.07300
C774        C  0.04423737  0.48835951  0.78868539    -0.18500
C775        C  0.00275122  0.00884062  0.78686794     0.09900
C776        C  0.97445746  0.00854814  0.75847292    -0.07300
C777        C  0.97646561  0.48087065  0.73916823    -0.18500
C778        C  0.01364049  0.45785276  0.74474020     0.09900
S779        S  0.99602099  0.03874085  0.81620456    -0.33500
S780        S  0.01592475  0.42557245  0.71768368    -0.33500
H781        H  0.06980147  0.42621615  0.71506361     0.27900
H782        H  0.00586755  0.06370636  0.79448448     0.27900
H783        H  0.06984859  0.49159558  0.80835794     0.18500
H784        H  0.95050864  0.47752762  0.71968341     0.18500
C785        C  0.02171712  0.36638402  0.85662301    -0.07300
C786        C  0.97807661  0.38394330  0.85081219    -0.18500
C787        C  0.94098895  0.38782041  0.87429504     0.09900
C788        C  0.94808038  0.37369713  0.90453364    -0.07300
C789        C  0.98931978  0.35332487  0.90909266    -0.18500
C790        C  0.02635274  0.34958695  0.88534830     0.09900
S791        S  0.88688057  0.41230480  0.86514543    -0.33500
S792        S  0.08083385  0.32547392  0.89391213    -0.33500
H793        H  0.09400177  0.31942058  0.86235895     0.27900
H794        H  0.89464895  0.41402014  0.83224003     0.27900
H795        H  0.97533936  0.39686727  0.82860614     0.18500
H796        H  0.99457517  0.34187342  0.93186043     0.18500
C797        C  0.19823100  0.17631463  0.53237534    -0.07300
C798        C  0.17641670  0.19472514  0.55606762    -0.18500
C799        C  0.19673725  0.22471830  0.56251797     0.09900
C800        C  0.23876083  0.23658272  0.54435763    -0.07300
C801        C  0.25739695  0.21938476  0.51900435    -0.18500
C802        C  0.23699418  0.18972205  0.51240681     0.09900
S803        S  0.17026817  0.24535168  0.59563510    -0.33500
S804        S  0.26252034  0.17012009  0.47836861    -0.33500
H805        H  0.21628197  0.15416925  0.47187796     0.27900
H806        H  0.21656657  0.25949363  0.60519204     0.27900
H807        H  0.14645909  0.18471650  0.57134576     0.18500
H808        H  0.28877197  0.22897187  0.50453365     0.18500
C809        C  0.32026340  0.42706163  0.54502572    -0.07300
C810        C  0.29953092  0.43518364  0.57430681    -0.18500
C811        C  0.27718065  0.46442850  0.57850449     0.09900
C812        C  0.27516711  0.48596233  0.55275586    -0.07300
C813        C  0.29896910  0.47864150  0.52402908    -0.18500
C814        C  0.32115198  0.44919156  0.51979800     0.09900
S815        S  0.25055044  0.47249188  0.61691859    -0.33500
S816        S  0.31965716  0.43219557  0.97228970    -0.33500
H817        H  0.38004358  0.41715153  0.49091645     0.27900
H818        H  0.26455880  0.50468420  0.61592579     0.27900
H819        H  0.29839425  0.41797216  0.59357326     0.18500
H820        H  0.29749046  0.49514991  0.50425685     0.18500
C821        C  0.53440069  0.20555984  0.50574849    -0.07300
C822        C  0.53702319  0.23524409  0.49023311    -0.18500
C823        C  0.50354828  0.25964127  0.49806959     0.09900
C824        C  0.46541406  0.25451361  0.52183207    -0.07300
C825        C  0.46209165  0.22454601  0.53670459    -0.18500
C826        C  0.49513739  0.20014526  0.52868283     0.09900
S827        S  0.51350337  0.29707257  0.47790750    -0.33500
S828        S  0.48286688  0.16218413  0.54739403    -0.33500
H829        H  0.48847530  0.14527553  0.51930415     0.27900
H830        H  0.51171277  0.31466936  0.50574469     0.27900
H831        H  0.57335878  0.23947757  0.97865972     0.18500
H832        H  0.43254093  0.21973091  0.55443398     0.18500
C833        C  0.24399102  0.33834184  0.63953312    -0.07300
C834        C  0.25912521  0.32174528  0.66664910    -0.18500
C835        C  0.24322317  0.33038810  0.69675952     0.09900
C836        C  0.21117080  0.35680716  0.70037544    -0.07300
C837        C  0.19414064  0.37280678  0.67338680    -0.18500
C838        C  0.20981057  0.36383955  0.64307966     0.09900
S839        S  0.26437725  0.30676013  0.73003924    -0.33500
S840        S  0.18433808  0.38596183  0.61034579    -0.33500
H841        H  0.17000546  0.35882646  0.59364096     0.27900
H842        H  0.28580350  0.28199002  0.71295152     0.27900
H843        H  0.28488390  0.30217887  0.66441440     0.18500
H844        H  0.16895193  0.39267768  0.67593098     0.18500
C845        C  0.29418612  0.34743664  0.94974545    -0.07300
C846        C  0.24464329  0.35989699  0.95024945    -0.18500
C847        C  0.22267131  0.37333889  0.92333219     0.09900
C848        C  0.25016639  0.37335556  0.89427188    -0.07300
C849        C  0.30033866  0.36128045  0.89398411    -0.18500
C850        C  0.32260262  0.34858772  0.92128929     0.09900
S851        S  0.16007882  0.39068147  0.92744347    -0.33500
S852        S  0.38653143  0.33345611  0.91804411    -0.33500
H853        H  0.37160429  0.30452012  0.44440595     0.27900
H854        H  0.15851005  0.39144451  0.96061831     0.27900
H855        H  0.22334633  0.35991691  0.97234617     0.18500
H856        H  0.32242334  0.36123184  0.87216785     0.18500
C857        C  0.77854073  0.24037688  0.74168569    -0.07300
C858        C  0.80828060  0.22824229  0.71712293    -0.18500
C859        C  0.83059842  0.19869563  0.72006753     0.09900
C860        C  0.82219695  0.18065103  0.74794995    -0.07300
C861        C  0.79480925  0.19357366  0.77318539    -0.18500
C862        C  0.77265580  0.22322167  0.77034431     0.09900
S863        S  0.86330220  0.18354226  0.68606324    -0.33500
S864        S  0.73350810  0.23620505  0.80289201    -0.33500
H865        H  0.69715413  0.25232132  0.78482177     0.27900
H866        H  0.90566002  0.17282555  0.70309958     0.27900
H867        H  0.81229387  0.24133421  0.69497623     0.18500
H868        H  0.78744811  0.17950760  0.79440967     0.18500
C869        C  0.69801366  0.42727085  0.73328443    -0.07300
C870        C  0.71636421  0.43931636  0.70419542    -0.18500
C871        C  0.73747595  0.46973919  0.70165893     0.09900
C872        C  0.74041039  0.48827373  0.72885026    -0.07300
C873        C  0.71840920  0.47735870  0.75735454    -0.18500
C874        C  0.69698247  0.44694716  0.75986410     0.09900
S875        S  0.76177960  0.48442590  0.66391280    -0.33500
S876        S  0.67530490  0.43327171  0.79831658    -0.33500
H877        H  0.62648782  0.42397924  0.78771683     0.27900
H878        H  0.75708264  0.95797581  0.64603608     0.27900
H879        H  0.71649890  0.42419262  0.68383414     0.18500
H880        H  0.72060605  0.49188057  0.77813330     0.18500
C881        C  0.54503360  0.24974358  0.75942390    -0.07300
C882        C  0.52793499  0.22810715  0.73697851    -0.18500
C883        C  0.48841818  0.20609222  0.74381103     0.09900
C884        C  0.46628521  0.20425577  0.77458326    -0.07300
C885        C  0.48351302  0.22614548  0.79703877    -0.18500
C886        C  0.52230381  0.24868960  0.78984773     0.09900
S887        S  0.46686351  0.18240570  0.71144572    -0.33500
S888        S  0.54253903  0.27448815  0.82090859    -0.33500
H889        H  0.59471146  0.27498771  0.81203684     0.27900
H890        H  0.41457352  0.18807592  0.71715948     0.27900
H891        H  0.54410377  0.22923706  0.71327946     0.18500
H892        H  0.46748381  0.22536162  0.82075194     0.18500
C893        C  0.70745056  0.34442506  0.83351608    -0.07300
C894        C  0.67060106  0.35600415  0.85457783    -0.18500
C895        C  0.68526367  0.36969466  0.88328097     0.09900
C896        C  0.73810337  0.37335975  0.89013148    -0.07300
C897        C  0.77414647  0.36002990  0.86988709    -0.18500
C898        C  0.75947387  0.34458610  0.84269064     0.09900
S899        S  0.63628917  0.38355015  0.90979203    -0.33500
S900        S  0.80934871  0.32479801  0.82133951    -0.33500
H901        H  0.77679205  0.30022186  0.81143233     0.27900
H902        H  0.59422397  0.36976160  0.89433034     0.27900
H903        H  0.63066540  0.35573290  0.84787129     0.18500
H904        H  0.81431758  0.36022774  0.87611836     0.18500
C905        C  0.76525783  0.33330686  0.63928926    -0.07300
C906        C  0.79380604  0.36186227  0.63697724    -0.18500
C907        C  0.81100634  0.37404699  0.60756155     0.09900
C908        C  0.80022554  0.35696248  0.58008130    -0.07300
C909        C  0.77431002  0.32765384  0.58282121    -0.18500
C910        C  0.75722815  0.31556390  0.61189771     0.09900
S911        S  0.84289425  0.41218942  0.60649338    -0.33500
S912        S  0.72552968  0.27730704  0.61230540    -0.33500
H913        H  0.74449156  0.26773880  0.64184234     0.27900
H914        H  0.82332889  0.42211026  0.57726015     0.27900
H915        H  0.80002744  0.37568455  0.65791492     0.18500
H916        H  0.76682108  0.31404359  0.56186899     0.18500
C917        C  0.54374621  0.34777984  0.66465886    -0.07300
C918        C  0.49264015  0.35374102  0.67264423    -0.18500
C919        C  0.45477446  0.35404306  0.64933802     0.09900
C920        C  0.46849762  0.34735927  0.61773033    -0.07300
C921        C  0.52045773  0.34559237  0.60941829    -0.18500
C922        C  0.55815459  0.34630563  0.63247436     0.09900
S923        S  0.38919674  0.36235602  0.66021972    -0.33500
S924        S  0.62396072  0.34432863  0.61948304    -0.33500
H925        H  0.64349607  0.36171343  0.64482246     0.27900
H926        H  0.39792714  0.36755277  0.69242019     0.27900
H927        H  0.48192076  0.35589614  0.69727129     0.18500
H928        H  0.53169785  0.34175800  0.58509317     0.18500
O929        O  0.65247282  0.82871453  0.29091011    -0.83000
C930        C  0.74371884  0.82175187  0.16790954     0.96300
O931        O  0.76631318  0.82616033  0.19347117    -0.72100
O932        O  0.72766087  0.87357878  0.22274049    -0.75700
Al933      Al  0.74056359  0.83181404  0.23517373     1.49000
C934        C  0.69477562  0.89088110  0.23532008     0.91600
O935        O  0.59078963  0.85121662  0.21215763    -0.81900
O936        O  0.62199747  0.76443778  0.22975903    -0.75500
Al937      Al  0.62447107  0.83833186  0.25001685     1.90100
O938        O  0.60362891  0.80914303  0.18390088    -0.74600
O939        O  0.71855332  0.76458663  0.21192040    -0.74400
O940        O  0.69881959  0.81053618  0.16788705    -0.80100
O941        O  0.76013052  0.79090225  0.24826741    -0.78300
O942        O  0.67545894  0.81972169  0.22884158    -1.14400
O943        O  0.73173429  0.84135729  0.27805991    -0.73600
C944        C  0.69753043  0.83664869  0.29881608     0.97100
C945        C  0.58304319  0.83546125  0.18760886     0.93500
Al946      Al  0.66194671  0.78972615  0.20093989     1.55600
O947        O  0.65603404  0.87931745  0.24970628    -0.78200
C948        C  0.75192047  0.76599178  0.23316749     0.97700
C949        C  0.58583210  0.77272979  0.24759025     0.92500
O950        O  0.58132294  0.80131505  0.25480529    -0.83600
O951        O  0.35490392  0.84415030  0.98978587    -0.83000
C952        C  0.27024884  0.83017650  0.10907585     0.96300
O953        O  0.26467523  0.84678435  0.08451502    -0.72100
O954        O  0.29086361  0.87524345  0.03160108    -0.75700
Al955      Al  0.27644243  0.83236749  0.04308125     1.49000
C956        C  0.32923730  0.89319181  0.03571009     0.91600
O957        O  0.43994052  0.84184915  0.06400173    -0.81900
O958        O  0.41276518  0.77691853  0.06120993    -0.75500
Al959      Al  0.39245561  0.84067626  0.02907410     1.90100
O960        O  0.39319008  0.82346421  0.10388976    -0.74600
O961        O  0.31508619  0.76302513  0.06103282    -0.74400
O962        O  0.29712323  0.80562134  0.10807334    -0.80100
O963        O  0.24683296  0.79131561  0.05258859    -0.78300
O964        O  0.34096605  0.82257265  0.05106851    -1.14400
O965        O  0.28230229  0.81929168  0.00108631    -0.73600
C966        C  0.31366409  0.83448086  0.48182598     0.97100
C967        C  0.43251813  0.83806588  0.09350098     0.93500
Al968      Al  0.35349476  0.79448761  0.08115340     1.55600
O969        O  0.37300972  0.88209401  0.04080086    -0.78200
C970        C  0.26852794  0.76498496  0.05398418     0.97700
C971        C  0.43033958  0.77848960  0.03326643     0.92500
O972        O  0.41771343  0.80096081  0.01506664    -0.83600
O973        O  0.15412710  0.87755779  0.23856936    -0.83000
C974        C  0.22771354  0.88182539  0.36497608     0.96300
O975        O  0.25438539  0.88084378  0.34006284    -0.72100
O976        O  0.21625084  0.83248987  0.30957883    -0.75700
Al977      Al  0.23337265  0.87424058  0.29742989     1.49000
C978        C  0.18385709  0.81484947  0.29614223     0.91600
O979        O  0.07877588  0.85516238  0.31352094    -0.81900
O980        O  0.12226629  0.94192952  0.30008596    -0.75500
Al981      Al  0.11958525  0.86809986  0.27811011     1.90100
O982        O  0.09024025  0.89702709  0.34248237    -0.74600
O983        O  0.21535986  0.93948074  0.32282047    -0.74400
O984        O  0.18234881  0.89117157  0.36343072    -0.80100
O985        O  0.25520773  0.91509920  0.28445576    -0.78300
O986        O  0.16855394  0.88593624  0.30155878    -1.14400
O987        O  0.22977546  0.86418301  0.25470360    -0.73600
C988        C  0.19853681  0.86753273  0.23273666     0.97100
C989        C  0.06646021  0.87179857  0.33654256     0.93500
Al990      Al  0.15388777  0.91495987  0.32984651     1.55600
O991        O  0.14806331  0.82640599  0.27991885    -0.78200
C992        C  0.24792670  0.93936873  0.30050621     0.97700
C993        C  0.08685613  0.93474437  0.28130204     0.92500
O994        O  0.08082564  0.90638942  0.27270381    -0.83600
O995        O  0.85928213  0.87608740  0.03756965    -0.83000
C996        C  0.76052360  0.88896018  0.41720094     0.96300
O997        O  0.73568111  0.88617220  0.44279464    -0.72100
O998        O  0.77538069  0.83732424  0.47071335    -0.75700
Al999      Al  0.76199300  0.87862668  0.48431080     1.49000
C1000       C  0.80971879  0.81951311  0.48102523     0.91600
O1001       O  0.90779519  0.86218850  0.45405115    -0.81900
O1002       O  0.87451831  0.94856525  0.47976816    -0.75500
Al1003     Al  0.87901451  0.87244307  0.49430665     1.90100
O1004       O  0.89962066  0.90881054  0.43224704    -0.74600
O1005       O  0.77818307  0.94634891  0.46025585    -0.74400
O1006       O  0.80437313  0.90207690  0.41671355    -0.80100
O1007       O  0.74116963  0.91871540  0.49872189    -0.78300
O1008       O  0.82626607  0.89191065  0.47651018    -1.14400
O1009       O  0.77861599  0.86461901  0.02715127    -0.73600
C1010       C  0.81484725  0.86679404  0.04644695     0.97100
C1011       C  0.91627640  0.88122138  0.43125579     0.93500
Al1012     Al  0.83786535  0.92391011  0.44957542     1.55600
O1013       O  0.84856167  0.83069879  0.49472375    -0.78200
C1014       C  0.74562692  0.94379059  0.48238348     0.97700
C1015       C  0.91433557  0.93960294  0.49393499     0.92500
O1016       O  0.92178326  0.91027127  0.49789431    -0.83600
O1017       O  0.08841471  0.55106114  0.01734580    -0.83000
C1018       C  0.24510153  0.58070703  0.10423057     0.96300
O1019       O  0.21930216  0.55498595  0.10475330    -0.72100
O1020       O  0.12296928  0.56682974  0.10338828    -0.75700
Al1021     Al  0.16279014  0.54102912  0.07850372     1.49000
C1022       C  0.08640902  0.58409512  0.09620526     0.91600
O1023       O  0.14412109  0.63083588  0.04098359    -0.81900
O1024       O  0.22758035  0.57019673  0.99462803    -0.75500
Al1025     Al  0.12030060  0.58958278  0.03024883     1.90100
O1026       O  0.22396387  0.62430013  0.02714332    -0.74600
O1027       O  0.26767571  0.54189124  0.04483598    -0.74400
O1028       O  0.25211977  0.59599617  0.07869882    -0.80100
O1029       O  0.20228724  0.51094806  0.05764876    -0.78300
O1030       O  0.17313996  0.57057588  0.04851927    -1.14400
O1031       O  0.10307750  0.52165043  0.05915826    -0.73600
C1032       C  0.07904676  0.52636694  0.03371748     0.97100
C1033       C  0.18763701  0.64218165  0.03349747     0.93500
Al1034     Al  0.23728553  0.58191621  0.03734832     1.55600
O1035       O  0.07812109  0.59107298  0.06762593    -0.78200
C1036       C  0.24844323  0.51474406  0.04946175     0.97700
C1037       C  0.19193165  0.57962139  0.47760055     0.92500
O1038       O  0.15267019  0.59243505  0.98903506    -0.83600
O1039       O  0.91661134  0.54984326  0.26855090    -0.83000
C1040       C  0.76889610  0.58305029  0.17588005     0.96300
O1041       O  0.79633258  0.55893490  0.17690154    -0.72100
O1042       O  0.89176008  0.57700342  0.18035520    -0.75700
Al1043     Al  0.85201911  0.54688881  0.20325425     1.49000
C1044       C  0.93199297  0.58991631  0.19039571     0.91600
O1045       O  0.87402342  0.63190645  0.24351423    -0.81900
O1046       O  0.78037238  0.57161591  0.28662390    -0.75500
Al1047     Al  0.89202788  0.59030691  0.25500802     1.90100
O1048       O  0.79085979  0.62666126  0.25217336    -0.74600
O1049       O  0.74603024  0.54262569  0.23589614    -0.74400
O1050       O  0.76130673  0.59820596  0.20083792    -0.80100
O1051       O  0.81294043  0.51455461  0.22268069    -0.78300
O1052       O  0.83950867  0.57354264  0.23405753    -1.14400
O1053       O  0.91150163  0.52816707  0.22218231    -0.73600
C1054       C  0.93051185  0.52882259  0.24953024     0.97100
C1055       C  0.83044750  0.64370764  0.24724266     0.93500
Al1056     Al  0.77500159  0.58379543  0.24318827     1.55600
O1057       O  0.93931699  0.59211247  0.21974127    -0.78200
C1058       C  0.76642820  0.51643900  0.23048859     0.97700
C1059       C  0.81262621  0.58389383  0.30495686     0.92500
O1060       O  0.85598452  0.59339665  0.29457519    -0.83600
O1061       O  0.41565136  0.65717614  0.26617596    -0.83000
C1062       C  0.25825005  0.62121001  0.35300794     0.96300
O1063       O  0.28550372  0.64613755  0.35457818    -0.72100
O1064       O  0.38086361  0.63322898  0.35328998    -0.75700
Al1065     Al  0.34321747  0.66131179  0.32916761     1.49000
C1066       C  0.42092766  0.61954108  0.34551657     0.91600
O1067       O  0.36751725  0.57612497  0.29155353    -0.81900
O1068       O  0.28329497  0.63606960  0.24309635    -0.75500
Al1069     Al  0.38873125  0.61738548  0.27968636     1.90100
O1070       O  0.28739856  0.58047041  0.27686388    -0.74600
O1071       O  0.24048430  0.66376445  0.29369107    -0.74400
O1072       O  0.25267286  0.60747281  0.32715469    -0.80100
O1073       O  0.30554198  0.69273612  0.30941019    -0.78300
O1074       O  0.33426597  0.63420740  0.29815492    -1.14400
O1075       O  0.40397790  0.68195481  0.31048117    -0.73600
C1076       C  0.42591127  0.68019305  0.28363784     0.97100
C1077       C  0.32492499  0.56376022  0.28472051     0.93500
Al1078     Al  0.27111665  0.62312685  0.28616241     1.55600
O1079       O  0.43199914  0.61653088  0.31658023    -0.78200
C1080       C  0.25955426  0.69021130  0.30130354     0.97700
C1081       C  0.31662801  0.62263046  0.22627885     0.92500
O1082       O  0.35767949  0.61339018  0.23877419    -0.83600
O1083       O  0.58317910  0.65803657  0.01749827    -0.83000
C1084       C  0.73300509  0.62505333  0.42497146     0.96300
O1085       O  0.70619231  0.64959935  0.42441725    -0.72100
O1086       O  0.61068020  0.63282550  0.43006085    -0.75700
Al1087     Al  0.65036469  0.66228501  0.45145529     1.49000
C1088       C  0.57109294  0.61880189  0.44050190     0.91600
O1089       O  0.62756044  0.57666498  0.49427308    -0.81900
O1090       O  0.71825531  0.63752277  0.03565515    -0.75500
Al1091     Al  0.60983803  0.61827359  0.50508729     1.90100
O1092       O  0.71023315  0.58172973  0.50306802    -0.74600
O1093       O  0.75621413  0.66636530  0.48232343    -0.74400
O1094       O  0.73888179  0.60989575  0.45041034    -0.80100
O1095       O  0.68941572  0.69442885  0.46936509    -0.78300
O1096       O  0.66226804  0.63525529  0.48293437    -1.14400
O1097       O  0.59129906  0.68123175  0.47113365    -0.73600
C1098       C  0.57362557  0.68039226  0.49915409     0.97100
C1099       C  0.67075334  0.56467597  0.49870425     0.93500
Al1100     Al  0.72628732  0.62489612  0.49171387     1.55600
O1101       O  0.56258753  0.61663046  0.47001330    -0.78200
C1102       C  0.73565109  0.69275141  0.47702216     0.97700
C1103       C  0.68674984  0.62526315  0.05530626     0.92500
O1104       O  0.64312793  0.61543451  0.04637272    -0.83600
C1105       C  0.45674473  0.60982621  0.37070036    -0.07300
C1106       C  0.50804360  0.60445636  0.36247126    -0.18500
C1107       C  0.54586219  0.60296541  0.38549776     0.09900
C1108       C  0.53258526  0.60818867  0.41747706    -0.07300
C1109       C  0.48073115  0.60913728  0.42612311    -0.18500
C1110       C  0.44249770  0.60952265  0.40322105     0.09900
S1111       S  0.61051332  0.59543653  0.37235429    -0.33500
S1112       S  0.37642695  0.61117630  0.41648358    -0.33500
H1113       H  0.38482907  0.60311879  0.44833008     0.27900
H1114       H  0.62540783  0.58069161  0.40074003     0.27900
H1115       H  0.51937635  0.60300366  0.33786118     0.18500
H1116       H  0.47027637  0.61212107  0.45068468     0.18500
C1117       C  0.79722803  0.59184913  0.33761265    -0.07300
C1118       C  0.80556596  0.62324785  0.34672043    -0.18500
C1119       C  0.78580349  0.63453450  0.37511154     0.09900
C1120       C  0.75754800  0.61391959  0.39558557    -0.07300
C1121       C  0.75095402  0.58209319  0.38721083    -0.18500
C1122       C  0.77005094  0.57092553  0.35837839     0.09900
S1123       S  0.79787910  0.67554483  0.38368206    -0.33500
S1124       S  0.75875742  0.52991516  0.34956750    -0.33500
H1125       H  0.80252361  0.52669912  0.33026027     0.27900
H1126       H  0.80231772  0.67100774  0.41648589     0.27900
H1127       H  0.82639009  0.63952317  0.33102890     0.18500
H1128       H  0.72954578  0.56602089  0.40284963     0.18500
C1129       C  0.70589347  0.61661201  0.08708383    -0.07300
C1130       C  0.74807665  0.59671020  0.08748480    -0.18500
C1131       C  0.76747057  0.58415411  0.11556612     0.09900
C1132       C  0.74650782  0.59351429  0.14501715    -0.07300
C1133       C  0.70416861  0.61384824  0.14462964    -0.18500
C1134       C  0.68299577  0.62489100  0.11605368     0.09900
S1135       S  0.81839166  0.55581328  0.11237804    -0.33500
S1136       S  0.62759937  0.64961190  0.11819605    -0.33500
H1137       H  0.63456350  0.66457165  0.08854970     0.27900
H1138       H  0.82270600  0.55546116  0.07927632     0.27900
H1139       H  0.76473995  0.58983655  0.06515564     0.18500
H1140       H  0.68703599  0.62096811  0.16674821     0.18500
C1141       C  0.30491480  0.61423768  0.19287457    -0.07300
C1142       C  0.27030270  0.63255926  0.17554834    -0.18500
C1143       C  0.25150215  0.62270591  0.14623159     0.09900
C1144       C  0.26629910  0.59330224  0.13397936    -0.07300
C1145       C  0.30160182  0.57536597  0.15079586    -0.18500
C1146       C  0.32196825  0.58571092  0.17937757     0.09900
S1147       S  0.20730475  0.64833450  0.12633702    -0.33500
S1148       S  0.36762073  0.56022479  0.19791980    -0.33500
H1149       H  0.40643373  0.58378554  0.19786494     0.27900
H1150       H  0.17882069  0.62463672  0.11130016     0.27900
H1151       H  0.25678187  0.65441537  0.18526032     0.18500
H1152       H  0.31396389  0.55313939  0.14147159     0.18500
C1153       C  0.20339621  0.58508092  0.44316458    -0.07300
C1154       C  0.17666219  0.60909754  0.42723510    -0.18500
C1155       C  0.19191616  0.62034988  0.39719273     0.09900
C1156       C  0.23477040  0.60728959  0.38214473    -0.07300
C1157       C  0.25876566  0.58151825  0.39652044    -0.18500
C1158       C  0.24391775  0.57030444  0.42683482     0.09900
S1159       S  0.15570277  0.65187331  0.37977046    -0.33500
S1160       S  0.27736313  0.53737054  0.44406865    -0.33500
H1161       H  0.30362349  0.53092265  0.91488927     0.27900
H1162       H  0.16882822  0.64597958  0.34818687     0.27900
H1163       H  0.14497013  0.62049943  0.43888064     0.18500
H1164       H  0.29086221  0.57108374  0.38441764     0.18500
C1165       C  0.05101716  0.59410252  0.12154064    -0.07300
C1166       C  0.00189359  0.60403017  0.11315803    -0.18500
C1167       C  0.96301894  0.60660392  0.13596272     0.09900
C1168       C  0.97328044  0.59845840  0.16765725    -0.07300
C1169       C  0.02376979  0.59274773  0.17660586    -0.18500
C1170       C  0.06303183  0.59081188  0.15403532     0.09900
S1171       S  0.90060783  0.62009025  0.12438025    -0.33500
S1172       S  0.12722012  0.58289217  0.16757996    -0.33500
H1173       H  0.11772802  0.58702333  0.19998112     0.27900
H1174       H  0.91130876  0.62357849  0.09188168     0.27900
H1175       H  0.99310734  0.60812146  0.08854589     0.18500
H1176       H  0.03178885  0.58735482  0.20110739     0.18500
C1177       C  0.71349001  0.97103044  0.48867569    -0.07300
C1178       C  0.71188651  0.98291368  0.51931936    -0.18500
C1179       C  0.69330149  0.51260894  0.52364671     0.09900
C1180       C  0.67661084  0.53044720  0.49740956    -0.07300
C1181       C  0.67412623  0.51657760  0.46778320    -0.18500
C1182       C  0.69161608  0.98843517  0.46359582     0.09900
S1183       S  0.69316405  0.52652025  0.06583576    -0.33500
S1184       S  0.68945888  0.97471399  0.42357680    -0.33500
H1185       H  0.68728515  0.94260907  0.43211578     0.27900
H1186       H  0.65567670  0.54952365  0.06142308     0.27900
H1187       H  0.72872705  0.96778570  0.03913237     0.18500
H1188       H  0.66075603  0.53014575  0.44766927     0.18500
C1189       C  0.80247178  0.78516003  0.47845791    -0.07300
C1190       C  0.80250763  0.76645899  0.50617221    -0.18500
C1191       C  0.78313845  0.73535943  0.50632274     0.09900
C1192       C  0.76534282  0.72243492  0.47795110    -0.07300
C1193       C  0.76907224  0.74038987  0.44990330    -0.18500
C1194       C  0.78775786  0.77145113  0.44980456     0.09900
S1195       S  0.79282494  0.71055487  0.04075093    -0.33500
S1196       S  0.79075983  0.79256732  0.41251600    -0.33500
H1197       H  0.83072116  0.81355279  0.42068852     0.27900
H1198       H  0.74181228  0.69934454  0.03943535     0.27900
H1199       H  0.82787543  0.77300587  0.02495142     0.18500
H1200       H  0.75550688  0.73046156  0.42803857     0.18500
C1201       C  0.03752633  0.50367159  0.02356429    -0.07300
C1202       C  0.00058624  0.01433316  0.00749381    -0.18500
C1203       C  0.96008000  0.99414961  0.49252258     0.09900
C1204       C  0.95955245  0.96158992  0.00741955    -0.07300
C1205       C  0.00010510  0.95111062  0.02645120    -0.18500
C1206       C  0.03732627  0.47101499  0.03115930     0.09900
S1207       S  0.91844203  0.00887026  0.46198271    -0.33500
S1208       S  0.09029751  0.45217145  0.05025525    -0.33500
H1209       H  0.12814594  0.46920409  0.03276485     0.27900
H1210       H  0.93910953  0.03974489  0.45974894     0.27900
H1211       H  0.00439497  0.03760622  0.49296235     0.18500
H1212       H  0.00116786  0.92651227  0.03376864     0.18500
C1213       C  0.27652645  0.96843831  0.29326808    -0.07300
C1214       C  0.30582596  0.98176299  0.31728320    -0.18500
C1215       C  0.32689211  0.51169914  0.31347011     0.09900
C1216       C  0.31758351  0.52949565  0.28578455    -0.07300
C1217       C  0.29215581  0.51540289  0.26050551    -0.18500
C1218       C  0.26985616  0.98511021  0.26458787     0.09900
S1219       S  0.35922510  0.52791684  0.34702321    -0.33500
S1220       S  0.23176943  0.97018461  0.23257030    -0.33500
H1221       H  0.19514978  0.95351115  0.25124925     0.27900
H1222       H  0.40324747  0.53737473  0.32955454     0.27900
H1223       H  0.31048300  0.96891238  0.33939014     0.18500
H1224       H  0.28486922  0.52910255  0.23925303     0.18500
C1225       C  0.19050459  0.78042529  0.29877643    -0.07300
C1226       C  0.21201434  0.76895535  0.32668156    -0.18500
C1227       C  0.23062116  0.73854476  0.32880566     0.09900
C1228       C  0.22843280  0.71878680  0.30230583    -0.07300
C1229       C  0.20252223  0.72895586  0.27529726    -0.18500
C1230       C  0.18334975  0.75975597  0.27319059     0.09900
S1231       S  0.25849342  0.72688842  0.36580868    -0.33500
S1232       S  0.15432969  0.77299611  0.23689468    -0.33500
H1233       H  0.16337952  0.74564022  0.21951779     0.27900
H1234       H  0.23868620  0.69599923  0.36466422     0.27900
H1235       H  0.21629995  0.78432063  0.34672109     0.18500
H1236       H  0.20047522  0.71356651  0.25520866     0.18500
C1237       C  0.04988210  0.95966196  0.27163915    -0.07300
C1238       C  0.04456652  0.98611980  0.29105666    -0.18500
C1239       C  0.00857222  0.51031853  0.28091575     0.09900
C1240       C  0.97011656  0.50497640  0.25816971    -0.07300
C1241       C  0.97958297  0.97971769  0.24000867    -0.18500
C1242       C  0.01711982  0.95698474  0.24540279     0.09900
S1243       S  0.01475653  0.54665000  0.30208808    -0.33500
S1244       S  0.02218137  0.92595174  0.21705548    -0.33500
H1245       H  0.07616929  0.92694728  0.21602746     0.27900
H1246       H  0.01127126  0.56582525  0.27476483     0.27900
H1247       H  0.06905834  0.98881192  0.31134499     0.18500
H1248       H  0.95479153  0.97680115  0.21989137     0.18500
C1249       C  0.02097395  0.86416679  0.35565654    -0.07300
C1250       C  0.97889954  0.88320980  0.35022481    -0.18500
C1251       C  0.94192530  0.88752519  0.37368489     0.09900
C1252       C  0.94751663  0.87228787  0.40356585    -0.07300
C1253       C  0.98657548  0.85019726  0.40747831    -0.18500
C1254       C  0.02348757  0.84602155  0.38370100     0.09900
S1255       S  0.88977786  0.91376103  0.36495671    -0.33500
S1256       S  0.07532911  0.81957001  0.39143377    -0.33500
H1257       H  0.08788905  0.81423907  0.35964226     0.27900
H1258       H  0.90302457  0.92081961  0.33330489     0.27900
H1259       H  0.97754075  0.89684806  0.32838214     0.18500
H1260       H  0.99047926  0.83774468  0.42984516     0.18500
C1261       C  0.19865057  0.67636208  0.03336593    -0.07300
C1262       C  0.17624640  0.69496114  0.05670530    -0.18500
C1263       C  0.19689515  0.72484023  0.06341681     0.09900
C1264       C  0.24034894  0.73614847  0.04621076    -0.07300
C1265       C  0.25969469  0.71877844  0.02119727    -0.18500
C1266       C  0.23858392  0.68946681  0.01405065     0.09900
S1267       S  0.16864363  0.74615655  0.09551114    -0.33500
S1268       S  0.26483439  0.66990709  0.98015834    -0.33500
H1269       H  0.21840259  0.65460645  0.97267442     0.27900
H1270       H  0.21448156  0.76020644  0.10598249     0.27900
H1271       H  0.14530430  0.68525996  0.07140310     0.18500
H1272       H  0.29192423  0.72805932  0.00726595     0.18500
C1273       C  0.32085046  0.92732708  0.03493643    -0.07300
C1274       C  0.33408454  0.94500253  0.06136650    -0.18500
C1275       C  0.31430697  0.97514821  0.06556821     0.09900
C1276       C  0.28031828  0.98752178  0.04301646    -0.07300
C1277       C  0.26996100  0.97074983  0.01567680    -0.18500
C1278       C  0.29055484  0.94106756  0.01114875     0.09900
S1279       S  0.32958801  0.99515799  0.10152354    -0.33500
S1280       S  0.30103816  0.92688239  0.47365794    -0.33500
H1281       H  0.32172840  0.90495740  0.97349584     0.27900
H1282       H  0.32812303  0.02581952  0.08850500     0.27900
H1283       H  0.35699327  0.93447723  0.07980641     0.18500
H1284       H  0.24438719  0.98046301  0.99816615     0.18500
C1285       C  0.53308474  0.70380739  0.00634193    -0.07300
C1286       C  0.53774185  0.73383979  0.99174283    -0.18500
C1287       C  0.50518971  0.75855713  0.99977780     0.09900
C1288       C  0.46577626  0.75336898  0.02266025    -0.07300
C1289       C  0.46038562  0.72308043  0.03667040    -0.18500
C1290       C  0.49272979  0.69835303  0.02852881     0.09900
S1291       S  0.51822012  0.79650323  0.98128441    -0.33500
S1292       S  0.47843619  0.66008945  0.04610330    -0.33500
H1293       H  0.48598908  0.64365196  0.01790192     0.27900
H1294       H  0.51430144  0.81322639  0.00958655     0.27900
H1295       H  0.56671800  0.73909718  0.47458851     0.18500
H1296       H  0.42983977  0.71835056  0.05378169     0.18500
C1297       C  0.24746763  0.83941543  0.13981401    -0.07300
C1298       C  0.26741165  0.82516057  0.16696001    -0.18500
C1299       C  0.25189173  0.83365403  0.19712691     0.09900
C1300       C  0.21473387  0.85746903  0.20083750    -0.07300
C1301       C  0.19332368  0.87121547  0.17378310    -0.18500
C1302       C  0.20898307  0.86237888  0.14338505     0.09900
S1303       S  0.27917874  0.81218423  0.23012372    -0.33500
S1304       S  0.17741458  0.88080307  0.11049614    -0.33500
H1305       H  0.16972318  0.85231578  0.09446713     0.27900
H1306       H  0.32127460  0.79963526  0.21388298     0.27900
H1307       H  0.29608328  0.80720404  0.16465856     0.18500
H1308       H  0.16436634  0.88902480  0.17631121     0.18500
C1309       C  0.29346567  0.84480085  0.45092812    -0.07300
C1310       C  0.24284460  0.85557477  0.45090259    -0.18500
C1311       C  0.22124637  0.86943461  0.42411189     0.09900
C1312       C  0.24999504  0.87105986  0.39551945    -0.07300
C1313       C  0.30119242  0.86069015  0.39574863    -0.18500
C1314       C  0.32326695  0.84797492  0.42309121     0.09900
S1315       S  0.15761859  0.88544425  0.42788666    -0.33500
S1316       S  0.38892276  0.83560208  0.42070175    -0.33500
H1317       H  0.38657273  0.81347243  0.94125395     0.27900
H1318       H  0.15470128  0.88503231  0.46106562     0.27900
H1319       H  0.22048857  0.85425489  0.47259838     0.18500
H1320       H  0.32431302  0.86212455  0.37434580     0.18500
C1321       C  0.78156014  0.73775824  0.23944522    -0.07300
C1322       C  0.80588090  0.72391894  0.21360189    -0.18500
C1323       C  0.82720825  0.69412447  0.21634816     0.09900
C1324       C  0.82400072  0.67780070  0.24553646    -0.07300
C1325       C  0.80246212  0.69240314  0.27186890    -0.18500
C1326       C  0.78066599  0.72213312  0.26910298     0.09900
S1327       S  0.85117224  0.67637168  0.18092510    -0.33500
S1328       S  0.74736783  0.73683061  0.30322592    -0.33500
H1329       H  0.70741560  0.75128060  0.28671887     0.27900
H1330       H  0.89459517  0.66350032  0.19517258     0.27900
H1331       H  0.80599506  0.73578279  0.19071070     0.18500
H1332       H  0.79880535  0.67948236  0.29408747     0.18500
C1333       C  0.70354436  0.92494354  0.23412874    -0.07300
C1334       C  0.71497125  0.93899115  0.20468564    -0.18500
C1335       C  0.73470491  0.96978819  0.20257471     0.09900
C1336       C  0.74326398  0.98650187  0.23049971    -0.07300
C1337       C  0.72905301  0.97327084  0.25981269    -0.18500
C1338       C  0.70909619  0.94253143  0.26194552     0.09900
S1339       S  0.75076629  0.98721560  0.16438298    -0.33500
S1340       S  0.69844990  0.92565894  0.30083803    -0.33500
H1341       H  0.64801492  0.91543318  0.29470796     0.27900
H1342       H  0.72661599  0.46201471  0.14749719     0.27900
H1343       H  0.71062600  0.92523850  0.18353387     0.18500
H1344       H  0.73632778  0.98624375  0.28118437     0.18500
C1345       C  0.54625237  0.74890391  0.25809381    -0.07300
C1346       C  0.52975080  0.72663518  0.23612379    -0.18500
C1347       C  0.48975127  0.70480348  0.24305540     0.09900
C1348       C  0.46569875  0.70451349  0.27339503    -0.07300
C1349       C  0.48216535  0.72717371  0.29527334    -0.18500
C1350       C  0.52191327  0.74908994  0.28806042     0.09900
S1351       S  0.46928566  0.67876339  0.21198528    -0.33500
S1352       S  0.54111878  0.77579612  0.31858873    -0.33500
H1353       H  0.59377203  0.77508958  0.31105997     0.27900
H1354       H  0.50881210  0.68633737  0.19010887     0.27900
H1355       H  0.54736877  0.72708867  0.21284832     0.18500
H1356       H  0.46477272  0.72747023  0.31860874     0.18500
C1357       C  0.71113573  0.84389028  0.33189295    -0.07300
C1358       C  0.67409883  0.85672101  0.35207828    -0.18500
C1359       C  0.68831209  0.87151200  0.38033862     0.09900
C1360       C  0.74088499  0.87421331  0.38810969    -0.07300
C1361       C  0.77715096  0.86003124  0.36865521    -0.18500
C1362       C  0.76304696  0.84429723  0.34148130     0.09900
S1363       S  0.63936758  0.88830244  0.40499962    -0.33500
S1364       S  0.81386348  0.82494280  0.32055663    -0.33500
H1365       H  0.78212364  0.80037465  0.30992512     0.27900
H1366       H  0.59707197  0.87923402  0.38672349     0.27900
H1367       H  0.63442441  0.85666292  0.34486244     0.18500
H1368       H  0.81713475  0.86012379  0.37532899     0.18500
C1369       C  0.76932721  0.83090822  0.13781284    -0.07300
C1370       C  0.79533980  0.86032011  0.13542055    -0.18500
C1371       C  0.81236758  0.87266409  0.10607141     0.09900
C1372       C  0.80417452  0.85490129  0.07873169    -0.07300
C1373       C  0.78072783  0.82482520  0.08150792    -0.18500
C1374       C  0.76385100  0.81252493  0.11061485     0.09900
S1375       S  0.84048179  0.91187587  0.10477929    -0.33500
S1376       S  0.73594811  0.77319613  0.11143991    -0.33500
H1377       H  0.75348412  0.76516326  0.14175533     0.27900
H1378       H  0.82064787  0.92073730  0.07528148     0.27900
H1379       H  0.79955739  0.87462879  0.15621678     0.18500
H1380       H  0.77500637  0.81084059  0.06060864     0.18500
C1381       C  0.54837421  0.84666060  0.16272555    -0.07300
C1382       C  0.49795549  0.85422994  0.17087640    -0.18500
C1383       C  0.45973217  0.85515930  0.14780637     0.09900
C1384       C  0.47224195  0.84756859  0.11625676    -0.07300
C1385       C  0.52381822  0.84414698  0.10765640    -0.18500
C1386       C  0.56199169  0.84418159  0.13046977     0.09900
S1387       S  0.39505658  0.86522547  0.15897699    -0.33500
S1388       S  0.62728782  0.84012699  0.11709980    -0.33500
H1389       H  0.64835467  0.85795474  0.14166731     0.27900
H1390       H  0.40595450  0.87376128  0.19015450     0.27900
H1391       H  0.48781459  0.85708223  0.19550102     0.18500
H1392       H  0.53421066  0.83951322  0.08335580     0.18500
O1393       O  0.65616675  0.83063703  0.79174580    -0.83000
C1394       C  0.74413900  0.82422856  0.66811766     0.96300
O1395       O  0.76730576  0.82912024  0.69335290    -0.72100
O1396       O  0.72662027  0.87614917  0.72197968    -0.75700
Al1397     Al  0.74204277  0.83509679  0.73504251     1.49000
C1398       C  0.69347232  0.89330757  0.73450466     0.91600
O1399       O  0.59000828  0.85124738  0.71412610    -0.81900
O1400       O  0.62531393  0.76549323  0.73106761    -0.75500
Al1401     Al  0.62616467  0.83955148  0.75136798     1.90100
O1402       O  0.60506997  0.80970369  0.68543067    -0.74600
O1403       O  0.72190631  0.76686484  0.71360084    -0.74400
O1404       O  0.69969439  0.81236845  0.66875898    -0.80100
O1405       O  0.76371259  0.79507767  0.74854743    -0.78300
O1406       O  0.67721669  0.82166278  0.72966479    -1.14400
O1407       O  0.73421819  0.84516965  0.77789699    -0.73600
C1408       C  0.70111797  0.83927766  0.79906250     0.97100
C1409       C  0.58222804  0.83517674  0.68979101     0.93500
Al1410     Al  0.66430380  0.79122070  0.70217379     1.55600
O1411       O  0.65600705  0.88135660  0.74998835    -0.78200
C1412       C  0.75506030  0.76941436  0.73491355     0.97700
C1413       C  0.58946592  0.77339276  0.74929663     0.92500
O1414       O  0.58489421  0.80182777  0.75706402    -0.83600
O1415       O  0.35668145  0.84478555  0.49142839    -0.83000
C1416       C  0.26521084  0.82800468  0.60839609     0.96300
O1417       O  0.26078670  0.84495666  0.58397905    -0.72100
O1418       O  0.28954561  0.87469481  0.53239082    -0.75700
Al1419     Al  0.27499563  0.83151212  0.54255960     1.49000
C1420       C  0.32745537  0.89239879  0.53829977     0.91600
O1421       O  0.43652471  0.84079956  0.56775796    -0.81900
O1422       O  0.41108042  0.77633898  0.56316324    -0.75500
Al1423     Al  0.39167660  0.84033055  0.53160394     1.90100
O1424       O  0.38756753  0.82158037  0.60622598    -0.74600
O1425       O  0.31348751  0.76183080  0.55977484    -0.74400
O1426       O  0.29143435  0.80318033  0.60740352    -0.80100
O1427       O  0.24550838  0.79019092  0.55048274    -0.78300
O1428       O  0.33903482  0.82164763  0.55187822    -1.14400
O1429       O  0.28349760  0.81958729  0.50041414    -0.73600
C1430       C  0.31167785  0.83317278  0.98128314     0.97100
C1431       C  0.42763780  0.83620075  0.59702805     0.93500
Al1432     Al  0.34991098  0.79297733  0.58172600     1.55600
O1433       O  0.37099030  0.88123795  0.54386875    -0.78200
C1434       C  0.26731418  0.76389000  0.55186757     0.97700
C1435       C  0.43113046  0.77864718  0.53587065     0.92500
O1436       O  0.41856022  0.80101011  0.51747817    -0.83600
O1437       O  0.15342522  0.87941065  0.73717933    -0.83000
C1438       C  0.22432804  0.87914410  0.86429393     0.96300
O1439       O  0.25142858  0.87930092  0.83954838    -0.72100
O1440       O  0.21281927  0.83241055  0.80764805    -0.75700
Al1441     Al  0.23085936  0.87407432  0.79671063     1.49000
C1442       C  0.18027965  0.81519365  0.79387217     0.91600
O1443       O  0.07551575  0.85503745  0.81028450    -0.81900
O1444       O  0.11869540  0.94177823  0.80128799    -0.75500
Al1445     Al  0.11759267  0.86899837  0.77595465     1.90100
O1446       O  0.08789569  0.89482639  0.84186830    -0.74600
O1447       O  0.21220741  0.93880469  0.82356727    -0.74400
O1448       O  0.17928957  0.88898026  0.86289981    -0.80100
O1449       O  0.25326437  0.91500889  0.78523741    -0.78300
O1450       O  0.16602092  0.88588351  0.80060451    -1.14400
O1451       O  0.22825554  0.86501697  0.75367757    -0.73600
C1452       C  0.19747398  0.86880213  0.73154583     0.97100
C1453       C  0.06396260  0.87007516  0.83449588     0.93500
Al1454     Al  0.15089083  0.91376833  0.82994817     1.55600
O1455       O  0.14546424  0.82710580  0.77709461    -0.78200
C1456       C  0.24536686  0.93903625  0.80152085     0.97700
C1457       C  0.08473916  0.93554516  0.78120882     0.92500
O1458       O  0.07946209  0.90767044  0.77107062    -0.83600
O1459       O  0.85451377  0.87930651  0.53647282    -0.83000
C1460       C  0.76795985  0.88824765  0.91791663     0.96300
O1461       O  0.74261728  0.88568598  0.94333987    -0.72100
O1462       O  0.78081395  0.83612041  0.97045808    -0.75700
Al1463     Al  0.76779284  0.87714208  0.98484969     1.49000
C1464       C  0.81476259  0.81777376  0.98028888     0.91600
O1465       O  0.91372852  0.86061723  0.95503056    -0.81900
O1466       O  0.87999931  0.94660178  0.98226817    -0.75500
Al1467     Al  0.88458328  0.87018965  0.99539632     1.90100
O1468       O  0.90724155  0.90787248  0.93465414    -0.74600
O1469       O  0.78456734  0.94473672  0.96136027    -0.74400
O1470       O  0.81225250  0.90077976  0.91781500    -0.80100
O1471       O  0.74715675  0.91730847  0.99979414    -0.78300
O1472       O  0.83232079  0.89016622  0.97773154    -1.14400
O1473       O  0.77387067  0.86725693  0.52673986    -0.73600
C1474       C  0.81034076  0.87003197  0.54580774     0.97100
C1475       C  0.92234307  0.88003841  0.93260696     0.93500
Al1476     Al  0.84467212  0.92243491  0.95131436     1.55600
O1477       O  0.85365206  0.82838277  0.99448975    -0.78200
C1478       C  0.75153187  0.94230845  0.98322739     0.97700
C1479       C  0.91992919  0.93772662  0.99633817     0.92500
O1480       O  0.92756234  0.90828723  0.00003024    -0.83600
O1481       O  0.08835697  0.54964522  0.51960473    -0.83000
C1482       C  0.24497346  0.58372553  0.60457177     0.96300
O1483       O  0.21775823  0.55866734  0.60678134    -0.72100
O1484       O  0.12242701  0.57252251  0.60505157    -0.75700
Al1485     Al  0.16033836  0.54405042  0.58195829     1.49000
C1486       C  0.08511041  0.58864571  0.59677533     0.91600
O1487       O  0.14233805  0.63056413  0.53943204    -0.81900
O1488       O  0.22498849  0.56763130  0.49560894    -0.75500
Al1489     Al  0.11864841  0.58907570  0.53058829     1.90100
O1490       O  0.22241662  0.62355903  0.52571816    -0.74600
O1491       O  0.26430102  0.54100147  0.54712804    -0.74400
O1492       O  0.25203051  0.59744851  0.57820218    -0.80100
O1493       O  0.19829454  0.51199283  0.56328460    -0.78300
O1494       O  0.17138504  0.57122437  0.54992533    -1.14400
O1495       O  0.09930413  0.52408799  0.56422289    -0.73600
C1496       C  0.07729786  0.52645746  0.53775147     0.97100
C1497       C  0.18594880  0.64159868  0.53165372     0.93500
Al1498     Al  0.23551055  0.58133609  0.53775435     1.55600
O1499       O  0.07555809  0.59243422  0.56776578    -0.78200
C1500       C  0.24436602  0.51447406  0.55438792     0.97700
C1501       C  0.19386902  0.58216952  0.97705988     0.92500
O1502       O  0.15094535  0.59042062  0.48927716    -0.83600
O1503       O  0.91865038  0.55289852  0.76823786    -0.83000
C1504       C  0.77172988  0.58488156  0.67477460     0.96300
O1505       O  0.80005960  0.56122606  0.67587006    -0.72100
O1506       O  0.89409638  0.58120356  0.68054086    -0.75700
Al1507     Al  0.85546540  0.54997362  0.70254608     1.49000
C1508       C  0.93307503  0.59523286  0.69094067     0.91600
O1509       O  0.87203221  0.63492143  0.74509683    -0.81900
O1510       O  0.78002682  0.57239927  0.78596187    -0.75500
Al1511     Al  0.89210729  0.59323530  0.75545943     1.90100
O1512       O  0.78896590  0.62746128  0.75201308    -0.74600
O1513       O  0.74899859  0.54334098  0.73418858    -0.74400
O1514       O  0.76264190  0.59955065  0.69985788    -0.80100
O1515       O  0.81732932  0.51655229  0.72100102    -0.78300
O1516       O  0.84089287  0.57587503  0.73373604    -1.14400
O1517       O  0.91527494  0.53203847  0.72150143    -0.73600
C1518       C  0.93342260  0.53225546  0.74904292     0.97100
C1519       C  0.82757673  0.64562554  0.74868604     0.93500
Al1520     Al  0.77563163  0.58480168  0.74231543     1.55600
O1521       O  0.93998731  0.59701303  0.72038611    -0.78200
C1522       C  0.77047875  0.51759403  0.72835697     0.97700
C1523       C  0.81166120  0.58462639  0.80479670     0.92500
O1524       O  0.85506527  0.59457353  0.79486797    -0.83600
O1525       O  0.41798931  0.65883128  0.76673104    -0.83000
C1526       C  0.25826478  0.62364009  0.85245448     0.96300
O1527       O  0.28583290  0.64841475  0.85417489    -0.72100
O1528       O  0.38177390  0.63653720  0.85336126    -0.75700
Al1529     Al  0.34314265  0.66396421  0.82883951     1.49000
C1530       C  0.42086774  0.62171513  0.84576012     0.91600
O1531       O  0.36671812  0.57797704  0.79133054    -0.81900
O1532       O  0.28405259  0.63855107  0.74272895    -0.75500
Al1533     Al  0.38911161  0.61928807  0.77982781     1.90100
O1534       O  0.28718027  0.58293095  0.77614926    -0.74600
O1535       O  0.24038952  0.66558156  0.79315395    -0.74400
O1536       O  0.25273702  0.60983956  0.82661413    -0.80100
O1537       O  0.30456505  0.69511620  0.80901666    -0.78300
O1538       O  0.33459675  0.63653569  0.79795687    -1.14400
O1539       O  0.40326383  0.68480239  0.81004751    -0.73600
C1540       C  0.42674970  0.68239299  0.78381178     0.97100
C1541       C  0.32409423  0.56587831  0.78415089     0.93500
Al1542     Al  0.27141935  0.62543133  0.78568600     1.55600
O1543       O  0.43138462  0.61774792  0.81692625    -0.78200
C1544       C  0.25869749  0.69212702  0.80075044     0.97700
C1545       C  0.31785845  0.62545060  0.72598094     0.92500
O1546       O  0.35868779  0.61603516  0.73865341    -0.83600
O1547       O  0.58639109  0.65847305  0.51790181    -0.83000
C1548       C  0.73344942  0.62325970  0.92660972     0.96300
O1549       O  0.70646520  0.64768371  0.92575200    -0.72100
O1550       O  0.61103306  0.63043540  0.93069225    -0.75700
Al1551     Al  0.64994709  0.66053269  0.95188721     1.49000
C1552       C  0.57079734  0.61698540  0.94097367     0.91600
O1553       O  0.62616965  0.57597475  0.99664748    -0.81900
O1554       O  0.72069577  0.63772339  0.53400063    -0.75500
Al1555     Al  0.60792464  0.61766201  0.00607503     1.90100
O1556       O  0.70879522  0.58107950  0.00558815    -0.74600
O1557       O  0.75499204  0.66545764  0.98365988    -0.74400
O1558       O  0.73885652  0.60829242  0.95227385    -0.80100
O1559       O  0.68848610  0.69324543  0.96957407    -0.78300
O1560       O  0.66104216  0.63420568  0.98406631    -1.14400
O1561       O  0.59012765  0.67960138  0.97020202    -0.73600
C1562       C  0.57069170  0.67916505  0.99774409     0.97100
C1563       C  0.66922288  0.56403784  0.00154035     0.93500
Al1564     Al  0.72496625  0.62404257  0.99352989     1.55600
O1565       O  0.56181843  0.61506336  0.97045648    -0.78200
C1566       C  0.73471422  0.69177523  0.97748745     0.97700
C1567       C  0.68960286  0.62519767  0.55368914     0.92500
O1568       O  0.64608326  0.61506925  0.54490954    -0.83600
C1569       C  0.45631570  0.61135369  0.87093477    -0.07300
C1570       C  0.50735316  0.60515630  0.86266750    -0.18500
C1571       C  0.54499832  0.60240027  0.88570002     0.09900
C1572       C  0.53191768  0.60717491  0.91778537    -0.07300
C1573       C  0.48009001  0.60902351  0.92637716    -0.18500
C1574       C  0.44197438  0.61074927  0.90341929     0.09900
S1575       S  0.60925898  0.59390996  0.87244749    -0.33500
S1576       S  0.37588776  0.61335344  0.91645138    -0.33500
H1577       H  0.38400883  0.60782686  0.94882088     0.27900
H1578       H  0.62346376  0.57847369  0.90061598     0.27900
H1579       H  0.51868107  0.60395187  0.83803885     0.18500
H1580       H  0.46974462  0.61165714  0.95099813     0.18500
C1581       C  0.79580503  0.59195449  0.83768167    -0.07300
C1582       C  0.80328640  0.62329224  0.84726285    -0.18500
C1583       C  0.78500280  0.63370386  0.87640463     0.09900
C1584       C  0.75849013  0.61240862  0.89711101    -0.07300
C1585       C  0.75232871  0.58071769  0.88811116    -0.18500
C1586       C  0.77033275  0.57033888  0.85860989     0.09900
S1587       S  0.79663198  0.67461664  0.88564789    -0.33500
S1588       S  0.75962016  0.52945251  0.84911484    -0.33500
H1589       H  0.80248787  0.52703602  0.82891469     0.27900
H1590       H  0.80263701  0.66943319  0.91826270     0.27900
H1591       H  0.82240872  0.64022726  0.83140120     0.18500
H1592       H  0.73189649  0.56415684  0.90373651     0.18500
C1593       C  0.70894633  0.61697881  0.58543580    -0.07300
C1594       C  0.75065814  0.59675132  0.58609499    -0.18500
C1595       C  0.77041413  0.58497788  0.61439424     0.09900
C1596       C  0.74987237  0.59518487  0.64370545    -0.07300
C1597       C  0.70820151  0.61601999  0.64296937    -0.18500
C1598       C  0.68710937  0.62661097  0.61422551     0.09900
S1599       S  0.82206518  0.55710568  0.61153582    -0.33500
S1600       S  0.63337393  0.65271334  0.61588460    -0.33500
H1601       H  0.64024201  0.66643938  0.58565530     0.27900
H1602       H  0.81805763  0.55089564  0.57914714     0.27900
H1603       H  0.76708397  0.58934695  0.56388839     0.18500
H1604       H  0.69163298  0.62397666  0.66492624     0.18500
C1605       C  0.30687663  0.61757056  0.69235674    -0.07300
C1606       C  0.27311952  0.63635886  0.67487080    -0.18500
C1607       C  0.25432426  0.62675114  0.64545865     0.09900
C1608       C  0.26806816  0.59704985  0.63341298    -0.07300
C1609       C  0.30292983  0.57879786  0.65022300    -0.18500
C1610       C  0.32349165  0.58897539  0.67881027     0.09900
S1611       S  0.21143847  0.65306716  0.62533674    -0.33500
S1612       S  0.36826211  0.56303069  0.69752052    -0.33500
H1613       H  0.40750265  0.58631111  0.69791563     0.27900
H1614       H  0.18308848  0.63005675  0.60922684     0.27900
H1615       H  0.26013360  0.65834687  0.68457887     0.18500
H1616       H  0.31422448  0.55623472  0.64097999     0.18500
C1617       C  0.20467172  0.58797902  0.94271736    -0.07300
C1618       C  0.17872992  0.61271658  0.92746713    -0.18500
C1619       C  0.19325889  0.62375825  0.89726599     0.09900
C1620       C  0.23472191  0.60985007  0.88152107    -0.07300
C1621       C  0.25788666  0.58349978  0.89532700    -0.18500
C1622       C  0.24353836  0.57238680  0.92571073     0.09900
S1623       S  0.15760295  0.65584975  0.88046392    -0.33500
S1624       S  0.27562626  0.53858487  0.94218970    -0.33500
H1625       H  0.31190514  0.53284868  0.41888062     0.27900
H1626       H  0.16985993  0.65010256  0.84872201     0.27900
H1627       H  0.14822297  0.62468863  0.93969423     0.18500
H1628       H  0.28909284  0.57256570  0.88278234     0.18500
C1629       C  0.05035437  0.60068689  0.62162089    -0.07300
C1630       C  0.00063946  0.60953840  0.61328533    -0.18500
C1631       C  0.96228755  0.61265595  0.63640817     0.09900
C1632       C  0.97353393  0.60560427  0.66822847    -0.07300
C1633       C  0.02463214  0.60195398  0.67696699    -0.18500
C1634       C  0.06348970  0.59997867  0.65409578     0.09900
S1635       S  0.89908659  0.62511505  0.62519811    -0.33500
S1636       S  0.12861170  0.59496243  0.66732764    -0.33500
H1637       H  0.11987813  0.60230732  0.69917021     0.27900
H1638       H  0.90946319  0.62890804  0.59268919     0.27900
H1639       H  0.99096464  0.61212700  0.58861942     0.18500
H1640       H  0.03358573  0.59784306  0.70157208     0.18500
C1641       C  0.71868215  0.96957631  0.98869554    -0.07300
C1642       C  0.71387686  0.98118255  0.01934517    -0.18500
C1643       C  0.69148608  0.51167775  0.02628192     0.09900
C1644       C  0.67479744  0.52986203  0.00026401    -0.07300
C1645       C  0.67124003  0.51627452  0.97058301    -0.18500
C1646       C  0.69900285  0.98724654  0.96301192     0.09900
S1647       S  0.69335385  0.52776880  0.56308849    -0.33500
S1648       S  0.70049089  0.97395952  0.92280620    -0.33500
H1649       H  0.69674384  0.94181766  0.93099830     0.27900
H1650       H  0.65397652  0.54947521  0.55830648     0.27900
H1651       H  0.72846262  0.96962554  0.53862874     0.18500
H1652       H  0.65786646  0.53014745  0.95066965     0.18500
C1653       C  0.80630407  0.78345340  0.97692828    -0.07300
C1654       C  0.81136084  0.76364215  0.00362280    -0.18500
C1655       C  0.79040005  0.73286679  0.00426019     0.09900
C1656       C  0.76494506  0.72148412  0.97742851    -0.07300
C1657       C  0.76385117  0.74040621  0.94998472    -0.18500
C1658       C  0.78481227  0.77095317  0.94929437     0.09900
S1659       S  0.77743207  0.71453300  0.54368947    -0.33500
S1660       S  0.78235508  0.79288280  0.91253816    -0.33500
H1661       H  0.82564688  0.81220967  0.91822809     0.27900
H1662       H  0.72842615  0.70154219  0.53807211     0.27900
H1663       H  0.81375801  0.77689035  0.52827318     0.18500
H1664       H  0.74538441  0.73150944  0.92904062     0.18500
C1665       C  0.03647178  0.50298358  0.52784419    -0.07300
C1666       C  0.00049377  0.01395169  0.50283350    -0.18500
C1667       C  0.96026716  0.99402473  0.99792924     0.09900
C1668       C  0.95400991  0.96306338  0.50529528    -0.07300
C1669       C  0.98932276  0.95319060  0.52821246    -0.18500
C1670       C  0.02685146  0.47325411  0.54299549     0.09900
S1671       S  0.91128734  0.01034587  0.97287660    -0.33500
S1672       S  0.06554435  0.45833691  0.57466383    -0.33500
H1673       H  0.11228088  0.46539544  0.55888408     0.27900
H1674       H  0.92903110  0.04190602  0.97252343     0.27900
H1675       H  0.00039205  0.03895352  0.00029125     0.18500
H1676       H  0.98595614  0.92950287  0.53816493     0.18500
C1677       C  0.27389958  0.96823492  0.79462050    -0.07300
C1678       C  0.30288080  0.98178126  0.81866882    -0.18500
C1679       C  0.32797215  0.51293454  0.81155222     0.09900
C1680       C  0.31582409  0.53158238  0.78488080    -0.07300
C1681       C  0.28705319  0.51830113  0.76048049    -0.18500
C1682       C  0.26602812  0.98512775  0.76627567     0.09900
S1683       S  0.36340754  0.52815920  0.84438012    -0.33500
S1684       S  0.22806105  0.96957973  0.73462459    -0.33500
H1685       H  0.25561700  0.94149373  0.73251043     0.27900
H1686       H  0.40634134  0.53726979  0.82573163     0.27900
H1687       H  0.30830289  0.96879598  0.84061404     0.18500
H1688       H  0.27761188  0.53260721  0.73997508     0.18500
C1689       C  0.18584059  0.78082944  0.79702567    -0.07300
C1690       C  0.20623293  0.76975383  0.82540745    -0.18500
C1691       C  0.22657265  0.73987213  0.82786449     0.09900
C1692       C  0.22646392  0.72013734  0.80135128    -0.07300
C1693       C  0.20057689  0.72957417  0.77404920    -0.18500
C1694       C  0.18005422  0.75996596  0.77153980     0.09900
S1695       S  0.25451808  0.72925410  0.86514145    -0.33500
S1696       S  0.15166244  0.77258945  0.73485369    -0.33500
H1697       H  0.15221328  0.74304839  0.72023050     0.27900
H1698       H  0.23926403  0.69756980  0.86347982     0.27900
H1699       H  0.20910168  0.78527268  0.84543215     0.18500
H1700       H  0.20000059  0.71412217  0.75396709     0.18500
C1701       C  0.04860240  0.96101992  0.77157214    -0.07300
C1702       C  0.03852232  0.98517516  0.79310337    -0.18500
C1703       C  0.00801563  0.51179015  0.78257596     0.09900
C1704       C  0.97270615  0.50811971  0.75768742    -0.07300
C1705       C  0.98475182  0.98430448  0.73692769    -0.18500
C1706       C  0.02150600  0.96112573  0.74285629     0.09900
S1707       S  0.01048429  0.54617373  0.80692323    -0.33500
S1708       S  0.03318222  0.93315044  0.71216438    -0.33500
H1709       H  0.08674592  0.93348236  0.71593016     0.27900
H1710       H  0.01106480  0.56749049  0.78106057     0.27900
H1711       H  0.05856698  0.98561316  0.81535045     0.18500
H1712       H  0.96447248  0.98349696  0.71478743     0.18500
C1713       C  0.01880798  0.86146861  0.85338630    -0.07300
C1714       C  0.97786612  0.88169845  0.84965791    -0.18500
C1715       C  0.94406533  0.88705514  0.87452278     0.09900
C1716       C  0.95104405  0.87108462  0.90392551    -0.07300
C1717       C  0.98798479  0.84740145  0.90597982    -0.18500
C1718       C  0.02206041  0.84243960  0.88080621     0.09900
S1719       S  0.89536499  0.91622292  0.86806701    -0.33500
S1720       S  0.07106432  0.81337483  0.88565557    -0.33500
H1721       H  0.08269938  0.81045598  0.85337522     0.27900
H1722       H  0.89994000  0.91842338  0.83498053     0.27900
H1723       H  0.97600326  0.89608937  0.82830834     0.18500
H1724       H  0.99251316  0.83416103  0.92783468     0.18500
C1725       C  0.19671271  0.67570242  0.53117079    -0.07300
C1726       C  0.17589050  0.69386451  0.55534436    -0.18500
C1727       C  0.19724917  0.72341429  0.56222000     0.09900
C1728       C  0.23914161  0.73517408  0.54394574    -0.07300
C1729       C  0.25671030  0.71836299  0.51803162    -0.18500
C1730       C  0.23530908  0.68903448  0.51104820     0.09900
S1731       S  0.17259276  0.74356099  0.59613542    -0.33500
S1732       S  0.25939057  0.66962224  0.47647995    -0.33500
H1733       H  0.21296577  0.65356732  0.47055036     0.27900
H1734       H  0.22038895  0.75504967  0.60633982     0.27900
H1735       H  0.14607349  0.68386564  0.57074751     0.18500
H1736       H  0.28791956  0.72797477  0.50343339     0.18500
C1737       C  0.31878088  0.92630356  0.53935167    -0.07300
C1738       C  0.31787894  0.94035188  0.56897698    -0.18500
C1739       C  0.29620828  0.96992883  0.57282864     0.09900
C1740       C  0.27506937  0.98567411  0.54657446    -0.07300
C1741       C  0.27843398  0.97240447  0.51667838    -0.18500
C1742       C  0.30024118  0.94288057  0.51277376     0.09900
S1743       S  0.29354354  0.98558624  0.61198739    -0.33500
S1744       S  0.27547702  0.92141095  0.97498445    -0.33500
H1745       H  0.34416683  0.90805107  0.47834082     0.27900
H1746       H  0.30215246  0.01690676  0.60158509     0.27900
H1747       H  0.33117060  0.92740323  0.58950468     0.18500
H1748       H  0.26213651  0.98450849  0.49653613     0.18500
C1749       C  0.53748614  0.70535438  0.50946023    -0.07300
C1750       C  0.53884947  0.73477983  0.49342488    -0.18500
C1751       C  0.50618796  0.75933973  0.50186880     0.09900
C1752       C  0.46914627  0.75442757  0.52626670    -0.07300
C1753       C  0.46843717  0.72518857  0.54263538    -0.18500
C1754       C  0.50164229  0.70085992  0.53463020     0.09900
S1755       S  0.51616298  0.79681886  0.48180666    -0.33500
S1756       S  0.49433128  0.66435245  0.55684209    -0.33500
H1757       H  0.49227448  0.64558968  0.52979171     0.27900
H1758       H  0.51385899  0.81439386  0.50965878     0.27900
H1759       H  0.56825730  0.73849905  0.97459658     0.18500
H1760       H  0.44077691  0.72080896  0.56157385     0.18500
C1761       C  0.24252364  0.83749973  0.63903379    -0.07300
C1762       C  0.26262424  0.82357587  0.66628514    -0.18500
C1763       C  0.24860143  0.83320078  0.69636378     0.09900
C1764       C  0.21307179  0.85799946  0.69980305    -0.07300
C1765       C  0.19111696  0.87119848  0.67265101    -0.18500
C1766       C  0.20505529  0.86109245  0.64238885     0.09900
S1767       S  0.27687780  0.81263101  0.72961744    -0.33500
S1768       S  0.17254091  0.87868013  0.60940081    -0.33500
H1769       H  0.16544003  0.84992444  0.59374604     0.27900
H1770       H  0.29778575  0.78736031  0.71302543     0.27900
H1771       H  0.29111965  0.80549438  0.66410099     0.18500
H1772       H  0.16290582  0.88948088  0.67499807     0.18500
C1773       C  0.29074850  0.84109510  0.94978147    -0.07300
C1774       C  0.23790866  0.84692626  0.94849179    -0.18500
C1775       C  0.21533768  0.86023106  0.92172110     0.09900
C1776       C  0.24596563  0.86688904  0.89447346    -0.07300
C1777       C  0.29879700  0.86029403  0.89554246    -0.18500
C1778       C  0.32140967  0.84770910  0.92274953     0.09900
S1779       S  0.14799038  0.86964431  0.92401661    -0.33500
S1780       S  0.38923753  0.84034508  0.92126872    -0.33500
H1781       H  0.38325056  0.81056853  0.44278679     0.27900
H1782       H  0.13668325  0.85482742  0.95330464     0.27900
H1783       H  0.21441750  0.84285865  0.96944981     0.18500
H1784       H  0.32302068  0.86502896  0.87498693     0.18500
C1785       C  0.78245503  0.74128550  0.74423098    -0.07300
C1786       C  0.82354391  0.73193912  0.72518398    -0.18500
C1787       C  0.84158919  0.70112776  0.72716081     0.09900
C1788       C  0.81863747  0.67965912  0.74919159    -0.07300
C1789       C  0.78028813  0.69004407  0.76989179    -0.18500
C1790       C  0.76158591  0.72050373  0.76747569     0.09900
S1791       S  0.88935567  0.68979634  0.69864056    -0.33500
S1792       S  0.70725403  0.72996971  0.79223610    -0.33500
H1793       H  0.71299966  0.76295356  0.79059706     0.27900
H1794       H  0.86376200  0.66164643  0.69035263     0.27900
H1795       H  0.83872927  0.74790258  0.70694226     0.18500
H1796       H  0.76267420  0.67369241  0.78696570     0.18500
C1797       C  0.70116094  0.92763627  0.73177874    -0.07300
C1798       C  0.72184554  0.93961480  0.70322831    -0.18500
C1799       C  0.74284849  0.97008902  0.70113258     0.09900
C1800       C  0.74328051  0.98888633  0.72822799    -0.07300
C1801       C  0.71886608  0.97807429  0.75605942    -0.18500
C1802       C  0.69751318  0.94757370  0.75810617     0.09900
S1803       S  0.77008848  0.98449616  0.66401157    -0.33500
S1804       S  0.67207534  0.93427944  0.79583704    -0.33500
H1805       H  0.62445212  0.92491637  0.78345318     0.27900
H1806       H  0.74749785  0.45796489  0.64619490     0.27900
H1807       H  0.72388764  0.92439866  0.68298760     0.18500
H1808       H  0.71900810  0.99276250  0.77674999     0.18500
C1809       C  0.54995017  0.74942868  0.75947374    -0.07300
C1810       C  0.53039793  0.72903169  0.73660456    -0.18500
C1811       C  0.48881969  0.70835650  0.74315231     0.09900
C1812       C  0.46692455  0.70657218  0.77401215    -0.07300
C1813       C  0.48677616  0.72710554  0.79691247    -0.18500
C1814       C  0.52771737  0.74830209  0.79004063     0.09900
S1815       S  0.46427317  0.68640081  0.71034340    -0.33500
S1816       S  0.55124265  0.77232290  0.82165812    -0.33500
H1817       H  0.60290389  0.77226006  0.81170334     0.27900
H1818       H  0.41258952  0.69258387  0.71744063     0.27900
H1819       H  0.54612481  0.73028360  0.71279741     0.18500
H1820       H  0.47121877  0.72616156  0.82074354     0.18500
C1821       C  0.71580934  0.84561601  0.83206111    -0.07300
C1822       C  0.67955795  0.85787108  0.85304678    -0.18500
C1823       C  0.69476576  0.87157164  0.88159868     0.09900
C1824       C  0.74769873  0.87433244  0.88857414    -0.07300
C1825       C  0.78330134  0.86066055  0.86820577    -0.18500
C1826       C  0.76792661  0.84535385  0.84099939     0.09900
S1827       S  0.64630296  0.88665580  0.90777408    -0.33500
S1828       S  0.81674908  0.82492054  0.81936175    -0.33500
H1829       H  0.78350970  0.80022271  0.81038066     0.27900
H1830       H  0.60345607  0.87508599  0.89141255     0.27900
H1831       H  0.63961912  0.85806941  0.84636487     0.18500
H1832       H  0.82353585  0.86049922  0.87431616     0.18500
C1833       C  0.76838136  0.83354673  0.63762779    -0.07300
C1834       C  0.79705780  0.86207534  0.63526467    -0.18500
C1835       C  0.81299658  0.87469376  0.60576991     0.09900
C1836       C  0.80042528  0.85820145  0.57821886    -0.07300
C1837       C  0.77432187  0.82896123  0.58094669    -0.18500
C1838       C  0.75898225  0.81628397  0.61010971     0.09900
S1839       S  0.84574850  0.91257264  0.60478353    -0.33500
S1840       S  0.72804878  0.77780952  0.61046359    -0.33500
H1841       H  0.74888782  0.76790252  0.63938863     0.27900
H1842       H  0.82492631  0.92317248  0.57613136     0.27900
H1843       H  0.80449172  0.87552363  0.65630473     0.18500
H1844       H  0.76549740  0.81577354  0.55992625     0.18500
C1845       C  0.54495315  0.84502687  0.66592812    -0.07300
C1846       C  0.49387129  0.84914407  0.67523767    -0.18500
C1847       C  0.45452750  0.84918132  0.65287017     0.09900
C1848       C  0.46683715  0.84475507  0.62057681    -0.07300
C1849       C  0.51854473  0.84412989  0.61120898    -0.18500
C1850       C  0.55754916  0.84447017  0.63344376     0.09900
S1851       S  0.38908586  0.85451578  0.66596322    -0.33500
S1852       S  0.62268693  0.84300275  0.61895866    -0.33500
H1853       H  0.64380465  0.85985145  0.64417505     0.27900
H1854       H  0.39851907  0.85386443  0.69857900     0.27900
H1855       H  0.48455485  0.85023945  0.70016216     0.18500
H1856       H  0.52872903  0.84151850  0.58652929     0.18500
loop_ 
_geom_bond_atom_site_label_1 
_geom_bond_atom_site_label_2 
_geom_bond_distance 
_geom_bond_site_symmetry_2 
_ccdc_geom_bond_type 
O1           C16   1.265       .  A
O1           Al9   1.930       .  S
C2           O12   1.253       .  A
C2            O3   1.253       .  A
C2          C441   1.472       .  S
O3           Al5   1.902       .  S
O4            C6   1.259       .  A
O4           Al5   1.877       .  S
Al5          O13   1.892       .  S
Al5          O15   1.880       .  S
Al5          O14   1.791       .  S
C6           O19   1.260       .  A
C6          C405   1.458       .  S
O7           C17   1.262       .  A
O7           Al9   1.915       .  S
O8           C21   1.259       .  A
O8          Al18   1.895       .  S
Al9          O22   1.909       .  S
Al9          O19   1.905       .  S
Al9          O14   1.801       .  S
O10          C17   1.257       .  A
O10         Al18   1.882       .  S
O11          C20   1.261       .  A
O11         Al18   1.899       .  S
O12         Al18   1.880       .  S
O13          C20   1.260       .  A
O14         Al18   1.790       .  S
O15          C16   1.255       .  A
C16         C429   1.487       .  S
C17         C453   1.475       .  S
C20         C393   1.458       .  S
C21          O22   1.260       .  A
C21         C417   1.479       .  S
O23         C502   1.269       .  A
O23         Al31   1.949   1_556  S
C24          O34   1.265       .  A
C24          O25   1.256       .  A
C24         C369   1.491       .  S
O25         Al27   1.895       .  S
O26          C28   1.260       .  A
O26         Al27   1.900       .  S
Al27         O35   1.927       .  S
Al27         O37   1.876   1_554  S
Al27         O36   1.778       .  S
C28          O41   1.260       .  A
C28         C345   1.454       .  S
O29          C39   1.270       .  A
O29         Al31   1.938       .  S
O30          C43   1.265       .  A
O30         Al40   1.925       .  S
Al31         O44   1.926       .  S
Al31         O41   1.896       .  S
Al31         O36   1.780       .  S
O32          C39   1.258       .  A
O32         Al40   1.878       .  S
O33          C42   1.258       .  A
O33         Al40   1.871       .  S
O34         Al40   1.920       .  S
O35          C42   1.264       .  A
O36         Al40   1.767       .  S
O37         C502   1.259       .  A
C38         O487   1.268       .  A
C38         O501   1.258       .  A
C38         C381   1.474       .  S
C39         C456   1.478       .  S
C42         C336   1.457       .  S
C43          O44   1.268       .  A
C43         C360   1.498       .  S
O45          C60   1.265       .  A
O45         Al53   1.925       .  S
C46          O56   1.256       .  A
C46          O47   1.260       .  A
C46         C384   1.492       .  S
O47         Al49   1.918       .  S
O48          C50   1.263       .  A
O48         Al49   1.875       .  S
Al49         O57   1.883       .  S
Al49         O59   1.879       .  S
Al49         O58   1.779       .  S
C50          O63   1.266       .  A
C50         C297   1.479       .  S
O51          C61   1.257       .  A
O51         Al53   1.897       .  S
O52          C65   1.264       .  A
O52         Al62   1.903       .  S
Al53         O66   1.944       .  S
Al53         O63   1.935       .  S
Al53         O58   1.790       .  S
O54          C61   1.256       .  A
O54         Al62   1.879       .  S
O55          C64   1.263       .  A
O55         Al62   1.908       .  S
O56         Al62   1.893       .  S
O57          C64   1.259       .  A
O58         Al62   1.777       .  S
O59          C60   1.256       .  A
C60         C372   1.482       .  S
C61         C321   1.455       .  S
C64         C285   1.454       .  S
C65          O66   1.269       .  A
C65         C309   1.506       .  S
O67          C82   1.265       .  A
O67        Al539   1.916   1_554  S
C68          O78   1.262       .  A
C68          O69   1.258       .  A
C68         C432   1.490       .  S
O69         Al71   1.920       .  S
O70          C72   1.259       .  A
O70         Al71   1.883       .  S
Al71         O79   1.907       .  S
Al71        O545   1.881       .  S
Al71         O80   1.786       .  S
C72          O85   1.262       .  A
C72         C261   1.469       .  S
O73          C83   1.262       .  A
O73         Al75   1.916       .  S
O74          C87   1.269       .  A
O74         Al84   1.922       .  S
Al75         O88   1.938       .  S
Al75         O85   1.922       .  S
Al75        O531   1.921       .  S
Al75         O80   1.790       .  S
O76          C83   1.255       .  A
O76         Al84   1.886       .  S
O77          C86   1.260       .  A
O77         Al84   1.898       .  S
O78         Al84   1.908       .  S
O79          C86   1.262       .  A
O80         Al84   1.776       .  S
O81          C82   1.260       .  A
O81        Al535   1.886   1_554  S
C82         C444   1.468       .  S
C83         C324   1.478       .  S
C86         C249   1.470       .  S
C87          O88   1.269       .  A
C87         C740   1.507       .  S
O89         C104   1.264       .  A
O89         Al97   1.913       .  S
C90         O100   1.261       .  A
C90          O91   1.268       .  A
C90         C216   1.486       .  S
O91         Al93   1.942       .  S
O92          C94   1.253       .  A
O92         Al93   1.868       .  S
Al93        O101   1.882       .  S
Al93        O103   1.943       .  S
Al93        O102   1.783       .  S
C94         O107   1.264       .  A
C94         C237   1.485       .  S
O95         C105   1.260       .  A
O95         Al97   1.908       .  S
O96         C573   1.267       .  A
O96        Al106   1.910   1_556  S
Al97        O110   1.927   1_554  S
Al97        O107   1.921       .  S
Al97        O102   1.785       .  S
O98         C105   1.255       .  A
O98        Al106   1.884       .  S
O99         C108   1.258       .  A
O99        Al106   1.914       .  S
O100       Al106   1.905       .  S
O101        C108   1.256       .  A
O102       Al106   1.788       .  S
O103        C104   1.267       .  A
C104        C273   1.509       .  S
C105        C333   1.473       .  S
C108       C1276   1.461   1_545  S
C109        O560   1.267       .  A
C109        O574   1.270       .  A
C109        C225   1.497       .  S
O110        C573   1.269       .  A
O111        C126   1.268       .  A
O111       Al119   1.926       .  S
C112        O122   1.263       .  A
C112        O113   1.258       .  A
C112        C204   1.500       .  S
O113       Al115   1.908       .  S
O114        C116   1.257       .  A
O114       Al115   1.879       .  S
Al115       O123   1.867       .  S
Al115       O125   1.922       .  S
Al115       O124   1.775       .  S
C116        O129   1.265       .  A
C116        C240   1.474       .  S
O117        C127   1.262       .  A
O117       Al119   1.899       .  S
O118        C131   1.264       .  A
O118       Al128   1.918       .  S
Al119       O132   1.921       .  S
Al119       O129   1.931       .  S
Al119       O124   1.784       .  S
O120        C127   1.262       .  A
O120       Al128   1.896       .  S
O121        C130   1.262       .  A
O121       Al128   1.913       .  S
O122       Al128   1.925       .  S
O123        C130   1.258       .  A
O124       Al128   1.785       .  S
O125        C126   1.265       .  A
C126        C312   1.502       .  S
C127        C396   1.466       .  S
C130       C1336   1.452   1_545  S
C131        O132   1.264       .  A
C131        C189   1.487       .  S
O133        C148   1.262       .  A
O133       Al141   1.889       .  S
C134        O144   1.259       .  A
C134        O135   1.264       .  A
C134        C228   1.480       .  S
O135       Al137   1.927       .  S
O136        C138   1.250       .  A
O136       Al137   1.865       .  S
Al137       O145   1.868       .  S
Al137       O147   1.938       .  S
Al137       O146   1.775       .  S
C138        O151   1.264       .  A
C138        C177   1.485       .  S
O139        C149   1.258       .  A
O139       Al141   1.882       .  S
O140        C153   1.268       .  A
O140       Al150   1.922       .  S
Al141       O154   1.926       .  S
Al141       O151   1.934       .  S
Al141       O146   1.784       .  S
O142        C149   1.263       .  A
O142       Al150   1.908       .  S
O143        C152   1.265       .  A
O143       Al150   1.941       .  S
O144       Al150   1.906       .  S
O145        C152   1.255       .  A
O146       Al150   1.787       .  S
O147        C148   1.269       .  A
C148        C420   1.492       .  S
C149        C288   1.461       .  S
C152        C300   1.476       .  S
C153        O154   1.265       .  A
C153        C213   1.498       .  S
O155        C634   1.267       .  A
O155       Al627   1.918       .  S
C156        O166   1.259       .  A
C156        O157   1.264       .  A
C156        C192   1.487       .  S
O157       Al159   1.929       .  S
O158        C160   1.254       .  A
O158       Al159   1.862       .  S
Al159       O167   1.865       .  S
Al159       O169   1.935       .  S
Al159       O168   1.776       .  S
C160        O173   1.270       .  A
C160        C180   1.480       .  S
O161        C171   1.258       .  A
O161       Al163   1.887       .  S
O162        C175   1.260       .  A
O162       Al636   1.889   1_554  S
Al163       O173   1.945       .  S
Al163       O619   1.912       .  S
Al163       O640   1.955       .  S
Al163       O168   1.783       .  S
O164        C171   1.261       .  A
O164       Al172   1.911       .  S
O165        C174   1.266       .  A
O165       Al172   1.935       .  S
O166       Al172   1.911       .  S
O167        C174   1.257       .  A
O168       Al172   1.779       .  S
O169        C170   1.267       .  A
C170        O619   1.265       .  A
C170        C821   1.497       .  S
C171        C252   1.457       .  S
Al172       O626   1.887       .  S
C174        C264   1.464       .  S
C175        O176   1.267       .  A
C175        C201   1.483       .  S
O176       Al627   1.947       .  S
C177        C178   1.403       .  A
C177        C182   1.421       .  A
C178        C179   1.397       .  A
C178        H187   1.083       .  S
C179        C180   1.417       .  A
C179        S183   1.806       .  S
C180        C181   1.400       .  A
C181        C182   1.401       .  A
C181        H188   1.082       .  S
C182        S184   1.809       .  S
S183        H186   1.408       .  S
S184        H185   1.407       .  S
C189        C190   1.406       .  A
C189        C194   1.414       .  A
C190        C191   1.399       .  A
C190        H199   1.084       .  S
C191        C192   1.412       .  A
C191        S195   1.804       .  S
C192        C193   1.409       .  A
C193        C194   1.410       .  A
C193        H200   1.084       .  S
C194        S196   1.803       .  S
S195        H198   1.407       .  S
S196        H197   1.406       .  S
C201        C202   1.400       .  A
C201        C206   1.411       .  A
C202        C203   1.400       .  A
C202        H211   1.083       .  S
C203        C204   1.423       .  A
C203        S207   1.813       .  S
C204        C205   1.413       .  A
C205        C206   1.411       .  A
C205        H212   1.083       .  S
C206        S208   1.803       .  S
S207        H210   1.406       .  S
S208        H209   1.406       .  S
C213        C214   1.407       .  A
C213        C218   1.423       .  A
C214        C215   1.409       .  A
C214        H223   1.084       .  S
C215        C216   1.417       .  A
C215        S219   1.804       .  S
C216        C217   1.398       .  A
C217        C218   1.402       .  A
C217        H224   1.082       .  S
C218        S220   1.801       .  S
S219        H222   1.405       .  S
S220        H221   1.408       .  S
C225        C226   1.410       .  A
C225        C230   1.417       .  A
C226        C227   1.401       .  A
C226        H235   1.084       .  S
C227        C228   1.408       .  A
C227        S231   1.803       .  S
C228        C229   1.403       .  A
C229        C230   1.409       .  A
C229        H236   1.082       .  S
C230        S232   1.807       .  S
S231        H234   1.406       .  S
S232        H697   1.407       .  S
H233        S696   1.406       .  S
C237        C238   1.405       .  A
C237        C242   1.421       .  A
C238        C239   1.400   1_455  A
C238        H247   1.082   1_455  S
C239        C240   1.410       .  A
C239        S243   1.807       .  S
C240        C241   1.400   1_655  A
C241        C242   1.401       .  A
C241        H248   1.083       .  S
C242        S244   1.812       .  S
S243        H246   1.406       .  S
S244        H245   1.407       .  S
C249        C250   1.401       .  A
C249        C254   1.415       .  A
C250       C1179   1.400       .  A
C250        H723   1.084       .  S
C251        C252   1.411       .  A
C251       C1178   1.399   1_545  A
C251        S719   1.803       .  S
C252        C253   1.396       .  A
C253       C1182   1.392   1_545  A
C253        H260   1.085       .  S
C254       C1181   1.395       .  A
C254        S256   1.803       .  S
S255        C715   1.802       .  S
S255        H258   1.406       .  S
S256        H257   1.402       .  S
H259        C714   1.084       .  S
C261        C262   1.405       .  A
C261        C266   1.409       .  A
C262        C263   1.402       .  A
C262        H735   1.084       .  S
C263        C264   1.411       .  A
C263        S731   1.800       .  S
C264        C265   1.399       .  A
C265        C266   1.390       .  A
C265        H272   1.085       .  S
C266        S268   1.799       .  S
S267        C727   1.801       .  S
S267        H270   1.405       .  S
S268        H269   1.407       .  S
H271        C726   1.084       .  S
C273        C278   1.418   1_545  A
C273       C1202   1.408       .  A
C274       C1201   1.409   1_655  A
C274        C739   1.415   1_554  A
C274        H747   1.082       .  S
C275        C738   1.410   1_655  A
C275        C740   1.418       .  A
C275        S279   1.809       .  S
C276        C551   1.515   1_554  S
C276        C277   1.412       .  A
C276        C739   1.423   1_554  A
C277       C1206   1.407   1_655  A
C277        H284   1.083       .  S
C278       C1205   1.410       .  A
C278        S280   1.802       .  S
S279        H282   1.406       .  S
S280        H281   1.407       .  S
H283        C738   1.082       .  S
C285        C286   1.401       .  A
C285        C290   1.408       .  A
C286       C1215   1.394       .  A
C286        H295   1.084       .  S
C287        C288   1.410       .  A
C287       C1214   1.393   1_545  A
C287        S291   1.801       .  S
C288        C289   1.403       .  A
C289       C1218   1.393   1_545  A
C289        H296   1.084       .  S
C290       C1217   1.393       .  A
C290        S292   1.806       .  S
S291        H294   1.406       .  S
S292        H293   1.406       .  S
C297        C298   1.399       .  A
C297        C302   1.418       .  A
C298        C299   1.387       .  A
C298        H307   1.085       .  S
C299        C300   1.414       .  A
C299        S303   1.802       .  S
C300        C301   1.404       .  A
C301        C302   1.410       .  A
C301        H308   1.083       .  S
C302        S304   1.808       .  S
S303        H306   1.399       .  S
S304        H305   1.407       .  S
C309        C310   1.411       .  A
C309        C314   1.419       .  A
C310       C1239   1.407       .  A
C310        H319   1.083       .  S
C311        C312   1.417   1_455  A
C311       C1238   1.405   1_545  A
C311        S315   1.800       .  S
C312       C1241   1.412   1_545  A
C313        C314   1.407   1_655  A
C313       C1240   1.409       .  A
C313        H320   1.084       .  S
C314        S316   1.801       .  S
S315        H318   1.408       .  S
S316        H317   1.408       .  S
C321        C322   1.392   1_455  A
C321        C326   1.409       .  A
C322        C323   1.392       .  A
C322        H331   1.084       .  S
C323        C324   1.421       .  A
C323        S327   1.807       .  S
C324        C325   1.405       .  A
C325        C326   1.402   1_655  A
C325        H332   1.084   1_655  S
C326        S328   1.804       .  S
S327        H330   1.407       .  S
S328        H329   1.406       .  S
C333        C334   1.405       .  A
C333        C338   1.417       .  A
C334        C335   1.400       .  A
C334        H343   1.084       .  S
C335        C336   1.410       .  A
C335        S339   1.803       .  S
C336        C337   1.396       .  A
C337        C338   1.389       .  A
C337        H344   1.085       .  S
C338        S340   1.804   1_554  S
S339        H342   1.405       .  S
S340        H341   1.402       .  S
C345        C346   1.398       .  A
C345        C350   1.410       .  A
C346        C347   1.393       .  A
C346        H355   1.085       .  S
C347        C348   1.410       .  A
C347        S351   1.800       .  S
C348       C1036   1.459       .  S
C348        C349   1.399       .  A
C349        C350   1.396       .  A
C349        H356   1.083   1_554  S
C350        S816   1.803   1_554  S
S351        H354   1.402       .  S
S352        C814   1.804       .  S
S352        H817   1.405       .  S
H353        S816   1.406       .  S
C357        C634   1.498       .  S
C357        C358   1.409   1_554  A
C357        C362   1.416       .  A
C358        C359   1.407   1_556  A
C358        H831   1.084       .  S
C359        C360   1.415       .  A
C359        S363   1.801   1_554  S
C360        C361   1.409       .  A
C361        C362   1.405       .  A
C361        H368   1.084       .  S
C362        S364   1.802       .  S
S363        H366   1.408   1_556  S
S364        H365   1.407       .  S
H367        C822   1.084       .  S
C369        C370   1.402       .  A
C369        C374   1.422       .  A
C370        C371   1.392       .  A
C370        H379   1.082       .  S
C371        C372   1.419       .  A
C371        S375   1.812       .  S
C372        C373   1.403       .  A
C373        C374   1.407       .  A
C373        H380   1.084       .  S
C374        S376   1.801       .  S
S375        H378   1.407       .  S
S376        H377   1.408       .  S
C381        C382   1.403       .  A
C381        C386   1.406       .  A
C382        C383   1.399       .  A
C382        H391   1.083       .  S
C383        C384   1.419       .  A
C383        S387   1.812       .  S
C384        C385   1.414       .  A
C385        C386   1.403       .  A
C385        H392   1.083       .  S
C386        S388   1.803       .  S
S387        H390   1.407       .  S
S388        H853   1.406       .  S
H389        S852   1.407       .  S
C393        C394   1.402       .  A
C393        C398   1.408       .  A
C394        C395   1.398       .  A
C394        H403   1.084       .  S
C395        C396   1.410       .  A
C395        S399   1.800       .  S
C396        C397   1.404       .  A
C397        C398   1.394       .  A
C397        H404   1.084       .  S
C398        S400   1.805       .  S
S399        H402   1.406       .  S
S400        H401   1.404       .  S
C405        C406   1.399       .  A
C405        C410   1.413       .  A
C406        C407   1.394       .  A
C406        H415   1.084       .  S
C407        C408   1.408       .  A
C407        S411   1.808       .  S
C408       C1058   1.453       .  S
C408        C409   1.398       .  A
C409        C410   1.396       .  A
C409        H416   1.084       .  S
C410        S412   1.802       .  S
S411       H1342   1.407       .  S
S412        H413   1.406       .  S
H414       S1339   1.407       .  S
C417        C418   1.402       .  A
C417        C422   1.412       .  A
C418        C419   1.401       .  A
C418        H427   1.084       .  S
C419        C420   1.419       .  A
C419        S423   1.804       .  S
C420        C421   1.409       .  A
C421        C422   1.404       .  A
C421        H428   1.084       .  S
C422        S424   1.804       .  S
S423        H426   1.408       .  S
S424        H425   1.405       .  S
C429        C430   1.406       .  A
C429        C434   1.415       .  A
C430        C431   1.413       .  A
C430        H439   1.083       .  S
C431        C432   1.419       .  A
C431        S435   1.804       .  S
C432        C433   1.400       .  A
C433        C434   1.392       .  A
C433        H440   1.082       .  S
C434        S436   1.805       .  S
S435        H438   1.407       .  S
S436        H437   1.407       .  S
C441        C442   1.408       .  A
C441        C446   1.409       .  A
C442        C443   1.405       .  A
C442        H451   1.084       .  S
C443        C444   1.410       .  A
C443        S447   1.803       .  S
C444        C445   1.404       .  A
C445        C446   1.391       .  A
C445        H452   1.085       .  S
C446        S448   1.805       .  S
S447        H450   1.406       .  S
S448        H449   1.407       .  S
C453        C454   1.401       .  A
C453        C458   1.414       .  A
C454        C455   1.406       .  A
C454        H463   1.083       .  S
C455        C456   1.417       .  A
C455        S459   1.808       .  S
C456        C457   1.400       .  A
C457        C458   1.394       .  A
C457        H464   1.084       .  S
C458        S460   1.801       .  S
S459        H462   1.407       .  S
S460        H461   1.407       .  S
O465        C480   1.265       .  A
O465       Al473   1.925       .  S
C466        O476   1.255       .  A
C466        O467   1.255       .  A
C466        C905   1.475       .  S
O467       Al469   1.908       .  S
O468        C470   1.259       .  A
O468       Al469   1.871       .  S
Al469       O477   1.892       .  S
Al469       O479   1.881       .  S
Al469       O478   1.786       .  S
C470        O483   1.262       .  A
C470        C869   1.463       .  S
O471        C481   1.261       .  A
O471       Al473   1.912       .  S
O472        C485   1.260       .  A
O472       Al482   1.892       .  S
Al473       O486   1.923       .  S
Al473       O483   1.917       .  S
Al473       O478   1.797       .  S
O474        C481   1.259       .  A
O474       Al482   1.889       .  S
O475        C484   1.262       .  A
O475       Al482   1.903       .  S
O476       Al482   1.881       .  S
O477        C484   1.260       .  A
O478       Al482   1.781       .  S
O479        C480   1.256       .  A
C480        C893   1.483       .  S
C481        C917   1.473       .  S
C484        C857   1.460       .  S
C485        O486   1.263       .  A
C485        C881   1.485       .  S
O487       Al495   1.943       .  S
C488        O498   1.267       .  A
C488        O489   1.254       .  A
C488        C833   1.489       .  S
O489       Al491   1.883       .  S
O490        C492   1.260       .  A
O490       Al491   1.901       .  S
Al491       O499   1.925       .  S
Al491       O501   1.875       .  S
Al491       O500   1.777       .  S
C492        O505   1.261       .  A
C492        C809   1.456       .  S
O493        C503   1.269       .  A
O493       Al495   1.939       .  S
O494        C507   1.267       .  A
O494       Al504   1.927       .  S
Al495       O508   1.921       .  S
Al495       O505   1.898       .  S
Al495       O500   1.780       .  S
O496        C503   1.257       .  A
O496       Al504   1.875       .  S
O497        C506   1.258       .  A
O497       Al504   1.873       .  S
O498       Al504   1.927       .  S
O499        C506   1.263       .  A
O500       Al504   1.767       .  S
C502        C845   1.481       .  S
C503        C920   1.478       .  S
C506        C800   1.458       .  S
C507        O508   1.267       .  A
C507        C824   1.499       .  S
O509        C524   1.264       .  A
O509       Al517   1.922       .  S
C510        O520   1.257       .  A
C510        O511   1.259       .  A
C510        C848   1.495       .  S
O511       Al513   1.918       .  S
O512        C514   1.264       .  A
O512       Al513   1.875       .  S
Al513       O521   1.888       .  S
Al513       O523   1.877       .  S
Al513       O522   1.780       .  S
C514        O527   1.268       .  A
C514        C761   1.482       .  S
O515        C525   1.255       .  A
O515       Al517   1.893       .  S
O516        C529   1.264       .  A
O516       Al526   1.899       .  S
Al517       O530   1.948       .  S
Al517       O527   1.939       .  S
Al517       O522   1.790       .  S
O518        C525   1.255       .  A
O518       Al526   1.878       .  S
O519        C528   1.264       .  A
O519       Al526   1.910       .  S
O520       Al526   1.901       .  S
O521        C528   1.261       .  A
O522       Al526   1.776       .  S
O523        C524   1.253       .  A
C524        C836   1.480       .  S
C525        C785   1.454       .  S
C528        C749   1.455       .  S
C529        O530   1.270       .  A
C529        C773   1.505       .  S
O531        C546   1.266       .  A
C532        O542   1.262       .  A
C532        O533   1.258       .  A
C532        C896   1.483       .  S
O533       Al535   1.915       .  S
O534        C536   1.260       .  A
O534       Al535   1.888       .  S
Al535       O543   1.906   1_556  S
Al535       O544   1.785       .  S
C536        O549   1.263       .  A
C536        C725   1.475       .  S
O537        C547   1.261       .  A
O537       Al539   1.910       .  S
O538        C551   1.268       .  A
O538       Al548   1.924       .  S
Al539       O552   1.940       .  S
Al539       O549   1.931       .  S
Al539       O544   1.784       .  S
O540        C547   1.256       .  A
O540       Al548   1.888       .  S
O541        C550   1.259       .  A
O541       Al548   1.891       .  S
O542       Al548   1.898       .  S
O543        C550   1.262   1_554  A
O544       Al548   1.777       .  S
O545        C546   1.259       .  A
C546        C908   1.472       .  S
C547        C788   1.476       .  S
C550        C713   1.466       .  S
C551        O552   1.270       .  A
O553        C568   1.264       .  A
O553       Al561   1.907       .  S
C554        O564   1.261       .  A
C554        O555   1.269       .  A
C554        C680   1.492       .  S
O555       Al557   1.945       .  S
O556        C558   1.251       .  A
O556       Al557   1.859       .  S
Al557       O565   1.881       .  S
Al557       O567   1.948       .  S
Al557       O566   1.783       .  S
C558        O571   1.266       .  A
C558        C701   1.484       .  S
O559        C569   1.258       .  A
O559       Al561   1.901       .  S
O560       Al570   1.909       .  S
Al561       O574   1.934       .  S
Al561       O571   1.929       .  S
Al561       O566   1.785       .  S
O562        C569   1.257       .  A
O562       Al570   1.889       .  S
O563        C572   1.260       .  A
O563       Al570   1.917       .  S
O564       Al570   1.909       .  S
O565        C572   1.256       .  A
O566       Al570   1.785       .  S
O567        C568   1.268       .  A
C568        C737   1.510       .  S
C569        C797   1.470       .  S
C572       C1740   1.461   1_545  S
C573        C689   1.491       .  S
O575        C590   1.267       .  A
O575       Al583   1.927       .  S
C576        O586   1.263       .  A
C576        O577   1.259       .  A
C576        C668   1.503       .  S
O577       Al579   1.912       .  S
O578        C580   1.256       .  A
O578       Al579   1.876       .  S
Al579       O587   1.868       .  S
Al579       O589   1.931       .  S
Al579       O588   1.773       .  S
C580        O593   1.266       .  A
C580        C704   1.474       .  S
O581        C591   1.262       .  A
O581       Al583   1.897       .  S
O582        C595   1.263       .  A
O582       Al592   1.916       .  S
Al583       O596   1.922       .  S
Al583       O593   1.934       .  S
Al583       O588   1.784       .  S
O584        C591   1.262       .  A
O584       Al592   1.903       .  S
O585        C594   1.264       .  A
O585       Al592   1.921       .  S
O586       Al592   1.929       .  S
O587        C594   1.259       .  A
O588       Al592   1.785       .  S
O589        C590   1.266       .  A
C590        C776   1.509       .  S
C591        C860   1.465       .  S
C594       C1800   1.460   1_545  S
C595        O596   1.264       .  A
C595        C653   1.486       .  S
O597        C612   1.263       .  A
O597       Al605   1.897       .  S
C598        O608   1.258       .  A
C598        O599   1.264       .  A
C598        C692   1.476       .  S
O599       Al601   1.927       .  S
O600        C602   1.249       .  A
O600       Al601   1.860       .  S
Al601       O609   1.865       .  S
Al601       O611   1.933       .  S
Al601       O610   1.772       .  S
C602        O615   1.266       .  A
C602        C641   1.490       .  S
O603        C613   1.259       .  A
O603       Al605   1.886       .  S
O604        C617   1.269       .  A
O604       Al614   1.922       .  S
Al605       O618   1.938       .  S
Al605       O615   1.944       .  S
Al605       O610   1.780       .  S
O606        C613   1.263       .  A
O606       Al614   1.909       .  S
O607        C616   1.266       .  A
O607       Al614   1.949       .  S
O608       Al614   1.902       .  S
O609        C616   1.254       .  A
O610       Al614   1.787       .  S
O611        C612   1.269       .  A
C612        C884   1.499       .  S
C613        C752   1.463       .  S
C616        C764   1.478       .  S
C617        O618   1.268       .  A
C617        C677   1.500       .  S
C620        O630   1.259       .  A
C620        O621   1.263       .  A
C620        C656   1.486       .  S
O621       Al623   1.926       .  S
O622        C624   1.254       .  A
O622       Al623   1.869       .  S
Al623       O631   1.869       .  S
Al623       O633   1.931       .  S
Al623       O632   1.777       .  S
C624        O637   1.268       .  A
C624        C644   1.480       .  S
O625        C635   1.261   1_556  A
O625       Al627   1.899   1_556  S
O626        C639   1.260       .  A
Al627       O637   1.943   1_554  S
Al627       O632   1.787   1_554  S
O628        C635   1.262       .  A
O628       Al636   1.914   1_554  S
O629        C638   1.266       .  A
O629       Al636   1.940       .  S
O630       Al636   1.909       .  S
O631        C638   1.257       .  A
O632       Al636   1.782       .  S
O633        C634   1.267   1_556  A
C635        C716   1.463   1_554  S
C638        C728   1.471       .  S
C639        O640   1.269       .  A
C639        C665   1.486       .  S
C641        C642   1.404       .  A
C641        C646   1.425       .  A
C642        C643   1.399       .  A
C642        H651   1.084       .  S
C643        C644   1.415       .  A
C643        S647   1.806       .  S
C644        C645   1.399       .  A
C645        C646   1.403       .  A
C645        H652   1.083       .  S
C646        S648   1.813       .  S
S647        H650   1.408       .  S
S648        H649   1.407       .  S
C653        C654   1.405       .  A
C653        C658   1.414       .  A
C654        C655   1.399       .  A
C654        H663   1.084       .  S
C655        C656   1.412       .  A
C655        S659   1.804       .  S
C656        C657   1.409       .  A
C657        C658   1.410       .  A
C657        H664   1.084       .  S
C658        S660   1.803       .  S
S659        H662   1.406       .  S
S660        H661   1.406       .  S
C665        C666   1.400       .  A
C665        C670   1.412       .  A
C666        C667   1.399       .  A
C666        H675   1.083       .  S
C667        C668   1.423       .  A
C667        S671   1.812       .  S
C668        C669   1.414       .  A
C669        C670   1.414       .  A
C669        H676   1.083       .  S
C670        S672   1.803       .  S
S671        H674   1.407       .  S
S672        H673   1.405       .  S
C677        C678   1.406       .  A
C677        C682   1.422       .  A
C678        C679   1.411       .  A
C678        H687   1.084       .  S
C679        C680   1.418       .  A
C679        S683   1.802       .  S
C680        C681   1.399       .  A
C681        C682   1.402       .  A
C681        H688   1.082       .  S
C682        S684   1.800       .  S
S683        H686   1.406       .  S
S684        H685   1.407       .  S
C689        C690   1.409       .  A
C689        C694   1.414       .  A
C690        C691   1.399       .  A
C690        H699   1.084       .  S
C691        C692   1.408       .  A
C691        S695   1.804       .  S
C692        C693   1.405       .  A
C693        C694   1.409       .  A
C693        H700   1.082       .  S
C694        S696   1.807       .  S
S695        H698   1.406       .  S
C701        C702   1.404       .  A
C701        C706   1.422       .  A
C702        C703   1.400   1_455  A
C702        H711   1.082   1_455  S
C703        C704   1.411       .  A
C703        S707   1.806       .  S
C704        C705   1.399   1_655  A
C705        C706   1.399       .  A
C705        H712   1.083       .  S
C706        S708   1.812       .  S
S707        H710   1.407       .  S
S708        H709   1.407       .  S
C713        C714   1.401   1_556  A
C713        C718   1.415       .  A
C714       C1643   1.400       .  A
C715       C1642   1.401   1_545  A
C715        C716   1.412   1_554  A
C716        C717   1.396       .  A
C717       C1646   1.393   1_545  A
C717        H724   1.085       .  S
C718       C1645   1.391       .  A
C718        S720   1.803       .  S
S719        H722   1.406       .  S
S720        H721   1.402       .  S
C725        C726   1.406   1_556  A
C725        C730   1.410       .  A
C726        C727   1.404       .  A
C727        C728   1.412   1_554  A
C728        C729   1.401       .  A
C729        C730   1.393       .  A
C729        H736   1.085       .  S
C730        S732   1.801       .  S
S731        H734   1.406       .  S
S732        H733   1.407       .  S
C737       C1666   1.410       .  A
C737        C742   1.419   1_545  A
C738       C1665   1.411       .  A
C739        S743   1.810       .  S
C740        C741   1.410       .  A
C741       C1670   1.410   1_655  A
C741        H748   1.084       .  S
C742       C1669   1.409   1_455  A
C742        S744   1.801       .  S
S743        H746   1.407       .  S
S744        H745   1.407       .  S
C749        C750   1.401       .  A
C749        C754   1.409       .  A
C750       C1679   1.395       .  A
C750        H759   1.084       .  S
C751       C1678   1.396   1_545  A
C751        C752   1.411       .  A
C751        S755   1.801       .  S
C752        C753   1.403       .  A
C753       C1682   1.391   1_545  A
C753        H760   1.083       .  S
C754       C1681   1.394       .  A
C754        S756   1.808       .  S
S755        H758   1.407       .  S
S756        H757   1.404       .  S
C761        C762   1.400       .  A
C761        C766   1.419       .  A
C762        C763   1.387       .  A
C762        H771   1.085       .  S
C763        C764   1.416       .  A
C763        S767   1.802       .  S
C764        C765   1.403       .  A
C765        C766   1.411       .  A
C765        H772   1.083       .  S
C766        S768   1.807       .  S
S767        H770   1.399       .  S
S768        H769   1.407       .  S
C773        C774   1.411       .  A
C773        C778   1.417       .  A
C774       C1703   1.407       .  A
C774        H783   1.083       .  S
C775       C1702   1.407   1_545  A
C775        C776   1.419   1_455  A
C775        S779   1.800   1_455  S
C776       C1705   1.414   1_545  A
C777       C1704   1.412       .  A
C777        C778   1.408   1_655  A
C777        H784   1.083       .  S
C778        S780   1.802       .  S
S779        H782   1.408   1_655  S
S780        H781   1.408       .  S
C785        C786   1.394   1_455  A
C785        C790   1.407       .  A
C786        C787   1.393       .  A
C786        H795   1.084       .  S
C787        C788   1.420       .  A
C787        S791   1.809       .  S
C788        C789   1.405       .  A
C789        C790   1.399   1_655  A
C789        H796   1.084       .  S
C790        S792   1.803       .  S
S791        H794   1.407       .  S
S792        H793   1.406       .  S
C797        C798   1.404       .  A
C797        C802   1.414       .  A
C798        C799   1.400       .  A
C798        H807   1.084       .  S
C799        C800   1.411       .  A
C799        S803   1.804       .  S
C800        C801   1.397       .  A
C801        C802   1.390       .  A
C801        H808   1.085       .  S
C802        S804   1.804       .  S
S803        H806   1.405       .  S
S804        H805   1.403       .  S
C809        C810   1.399       .  A
C809        C814   1.409       .  A
C810        C811   1.393       .  A
C810        H819   1.085       .  S
C811        C812   1.412       .  A
C811        S815   1.803       .  S
C812       C1500   1.466       .  S
C812        C813   1.402       .  A
C813        C814   1.399       .  A
C813        H820   1.084       .  S
S815        H818   1.405       .  S
C821        C822   1.409       .  A
C821        C826   1.416       .  A
C822        C823   1.408       .  A
C823        C824   1.418       .  A
C823        S827   1.801       .  S
C824        C825   1.408       .  A
C825        C826   1.403       .  A
C825        H832   1.084       .  S
C826        S828   1.802       .  S
S827        H830   1.407       .  S
S828        H829   1.408       .  S
C833        C834   1.401       .  A
C833        C838   1.423       .  A
C834        C835   1.394       .  A
C834        H843   1.082       .  S
C835        C836   1.419       .  A
C835        S839   1.813       .  S
C836        C837   1.401       .  A
C837        C838   1.404       .  A
C837        H844   1.084       .  S
C838        S840   1.801       .  S
S839        H842   1.406       .  S
S840        H841   1.408       .  S
C845        C846   1.405       .  A
C845        C850   1.407       .  A
C846        C847   1.400       .  A
C846        H855   1.083       .  S
C847        C848   1.418       .  A
C847        S851   1.811       .  S
C848        C849   1.414       .  A
C849        C850   1.404       .  A
C849        H856   1.083       .  S
C850        S852   1.802       .  S
S851        H854   1.407       .  S
C857        C858   1.402       .  A
C857        C862   1.410       .  A
C858        C859   1.395       .  A
C858        H867   1.085       .  S
C859        C860   1.409       .  A
C859        S863   1.800       .  S
C860        C861   1.404       .  A
C861        C862   1.397       .  A
C861        H868   1.083       .  S
C862        S864   1.806       .  S
S863        H866   1.405       .  S
S864        H865   1.406       .  S
C869        C870   1.401       .  A
C869        C874   1.413       .  A
C870        C871   1.394       .  A
C870        H879   1.084       .  S
C871        C872   1.408       .  A
C871        S875   1.809       .  S
C872       C1522   1.456       .  S
C872        C873   1.398       .  A
C873        C874   1.396       .  A
C873        H880   1.085       .  S
C874        S876   1.801       .  S
S875       H1806   1.407       .  S
S876        H877   1.406       .  S
H878       S1803   1.407       .  S
C881        C882   1.403       .  A
C881        C886   1.412       .  A
C882        C883   1.401       .  A
C882        H891   1.084       .  S
C883        C884   1.420       .  A
C883        S887   1.803       .  S
C884        C885   1.412       .  A
C885        C886   1.405       .  A
C885        H892   1.083       .  S
C886        S888   1.803       .  S
S887        H890   1.408       .  S
S888        H889   1.407       .  S
C893        C894   1.405       .  A
C893        C898   1.416       .  A
C894        C895   1.411       .  A
C894        H903   1.083       .  S
C895        C896   1.418       .  A
C895        S899   1.804       .  S
C896        C897   1.399       .  A
C897        C898   1.389       .  A
C897        H904   1.083       .  S
C898        S900   1.804       .  S
S899        H902   1.407       .  S
S900        H901   1.404       .  S
C905        C906   1.410       .  A
C905        C910   1.410       .  A
C906        C907   1.406       .  A
C906        H915   1.084       .  S
C907        C908   1.410       .  A
C907        S911   1.803       .  S
C908        C909   1.405       .  A
C909        C910   1.391       .  A
C909        H916   1.085       .  S
C910        S912   1.805       .  S
S911        H914   1.406       .  S
S912        H913   1.407       .  S
C917        C918   1.400       .  A
C917        C922   1.413       .  A
C918        C919   1.405       .  A
C918        H927   1.083       .  S
C919        C920   1.417       .  A
C919        S923   1.809       .  S
C920        C921   1.400       .  A
C921        C922   1.395       .  A
C921        H928   1.084       .  S
C922        S924   1.800       .  S
S923        H926   1.407       .  S
S924        H925   1.408       .  S
O929        C944   1.266       .  A
O929       Al937   1.929       .  S
C930        O940   1.255       .  A
C930        O931   1.254       .  A
C930       C1369   1.475       .  S
O931       Al933   1.904       .  S
O932        C934   1.259       .  A
O932       Al933   1.875       .  S
Al933       O941   1.892       .  S
Al933       O943   1.881       .  S
Al933       O942   1.789       .  S
C934        O947   1.260       .  A
C934       C1333   1.457       .  S
O935        C945   1.262       .  A
O935       Al937   1.914       .  S
O936        C949   1.261       .  A
O936       Al946   1.899       .  S
Al937       O950   1.919       .  S
Al937       O947   1.907       .  S
Al937       O942   1.798       .  S
O938        C945   1.259       .  A
O938       Al946   1.888       .  S
O939        C948   1.261       .  A
O939       Al946   1.895       .  S
O940       Al946   1.885       .  S
O941        C948   1.260       .  A
O942       Al946   1.784       .  S
O943        C944   1.256       .  A
C944       C1357   1.486       .  S
C945       C1381   1.475       .  S
C948       C1321   1.459       .  S
C949        O950   1.262       .  A
C949       C1345   1.488       .  S
O951       C1430   1.270       .  A
O951       Al959   1.946   1_556  S
C952        O962   1.267       .  A
C952        O953   1.258       .  A
C952       C1297   1.487       .  S
O953       Al955   1.893       .  S
O954        C956   1.261       .  A
O954       Al955   1.902       .  S
Al955       O963   1.923       .  S
Al955       O965   1.878       .  S
Al955       O964   1.776       .  S
C956        O969   1.263       .  A
C956       C1273   1.467       .  S
O957        C967   1.270       .  A
O957       Al959   1.942       .  S
O958        C971   1.265       .  A
O958       Al968   1.922       .  S
Al959       O972   1.920       .  S
Al959       O969   1.909       .  S
Al959       O964   1.779       .  S
O960        C967   1.258       .  A
O960       Al968   1.877       .  S
O961        C970   1.258       .  A
O961       Al968   1.875       .  S
O962       Al968   1.921       .  S
O963        C970   1.262       .  A
O964       Al968   1.766       .  S
O965       C1430   1.260   1_554  A
C966       O1415   1.270       .  A
C966       O1429   1.259       .  A
C966       C1309   1.479       .  S
C967       C1384   1.479       .  S
C970       C1264   1.458       .  S
C971        O972   1.266       .  A
C971       C1288   1.495       .  S
O973        C988   1.264       .  A
O973       Al981   1.925       .  S
C974        O984   1.257       .  A
C974        O975   1.259       .  A
C974       C1312   1.493       .  S
O975       Al977   1.918       .  S
O976        C978   1.264       .  A
O976       Al977   1.878       .  S
Al977       O985   1.883       .  S
Al977       O987   1.870       .  S
Al977       O986   1.778       .  S
C978        O991   1.267       .  A
C978       C1225   1.475       .  S
O979        C989   1.256       .  A
O979       Al981   1.896       .  S
O980        C993   1.263       .  A
O980       Al990   1.894       .  S
Al981       O994   1.940       .  S
Al981       O991   1.930       .  S
Al981       O986   1.791       .  S
O982        C989   1.256       .  A
O982       Al990   1.880       .  S
O983        C992   1.264       .  A
O983       Al990   1.911       .  S
O984       Al990   1.896       .  S
O985        C992   1.259       .  A
O986       Al990   1.776       .  S
O987        C988   1.252       .  A
C988       C1300   1.484       .  S
C989       C1249   1.456       .  S
C992       C1213   1.454       .  S
C993        O994   1.269       .  A
C993       C1237   1.499       .  S
O995       C1010   1.267       .  A
O995      Al1467   1.920   1_554  S
C996       O1006   1.261       .  A
C996        O997   1.259       .  A
C996       C1360   1.484       .  S
O997       Al999   1.920       .  S
O998       C1000   1.260       .  A
O998       Al999   1.890       .  S
Al999      O1007   1.902       .  S
Al999      O1473   1.884       .  S
Al999      O1008   1.783       .  S
C1000      O1013   1.262       .  A
C1000      C1189   1.470       .  S
O1001      C1011   1.262       .  A
O1001     Al1003   1.916       .  S
O1002      C1015   1.267       .  A
O1002     Al1012   1.918       .  S
Al1003     O1459   1.919       .  S
Al1003     O1016   1.944       .  S
Al1003     O1013   1.924       .  S
Al1003     O1008   1.786       .  S
O1004      C1011   1.256       .  A
O1004     Al1012   1.890       .  S
O1005      C1014   1.259       .  A
O1005     Al1012   1.894       .  S
O1006     Al1012   1.898       .  S
O1007      C1014   1.261       .  A
O1008     Al1012   1.776       .  S
O1009      C1010   1.260       .  A
O1009     Al1463   1.887   1_554  S
C1010      C1372   1.471       .  S
C1011      C1252   1.479       .  S
C1014      C1177   1.466       .  S
C1015      O1016   1.270       .  A
C1015      C1668   1.510       .  S
O1017      C1032   1.263       .  A
O1017     Al1025   1.909       .  S
C1018      O1028   1.261       .  A
C1018      O1019   1.269       .  A
C1018      C1144   1.486       .  S
O1019     Al1021   1.946       .  S
O1020      C1022   1.250       .  A
O1020     Al1021   1.856       .  S
Al1021     O1029   1.880       .  S
Al1021     O1031   1.943       .  S
Al1021     O1030   1.783       .  S
C1022      O1035   1.264       .  A
C1022      C1165   1.480       .  S
O1023      C1033   1.259       .  A
O1023     Al1025   1.908       .  S
O1024      C1501   1.267       .  A
O1024     Al1034   1.904   1_556  S
Al1025     O1038   1.931   1_554  S
Al1025     O1035   1.920       .  S
Al1025     O1030   1.787       .  S
O1026      C1033   1.254       .  A
O1026     Al1034   1.880       .  S
O1027      C1036   1.257       .  A
O1027     Al1034   1.909       .  S
O1028     Al1034   1.903       .  S
O1029      C1036   1.255       .  A
O1030     Al1034   1.787       .  S
O1031      C1032   1.268       .  A
C1032      C1201   1.506       .  S
C1033      C1261   1.471       .  S
C1037      O1488   1.266       .  A
C1037      O1502   1.269       .  A
C1037      C1153   1.499       .  S
O1038      C1501   1.270       .  A
O1039      C1054   1.267       .  A
O1039     Al1047   1.923       .  S
C1040      O1050   1.263       .  A
C1040      O1041   1.259       .  A
C1040      C1132   1.502       .  S
O1041     Al1043   1.914       .  S
O1042      C1044   1.256       .  A
O1042     Al1043   1.877       .  S
Al1043     O1051   1.865       .  S
Al1043     O1053   1.932       .  S
Al1043     O1052   1.773       .  S
C1044      O1057   1.265       .  A
C1044      C1168   1.472       .  S
O1045      C1055   1.260       .  A
O1045     Al1047   1.890       .  S
O1046      C1059   1.263       .  A
O1046     Al1056   1.910       .  S
Al1047     O1060   1.920       .  S
Al1047     O1057   1.926       .  S
Al1047     O1052   1.784       .  S
O1048      C1055   1.262       .  A
O1048     Al1056   1.901       .  S
O1049      C1058   1.263       .  A
O1049     Al1056   1.919       .  S
O1050     Al1056   1.925       .  S
O1051      C1058   1.258       .  A
O1052     Al1056   1.785       .  S
O1053      C1054   1.266       .  A
C1054      C1240   1.503       .  S
C1055      C1324   1.458       .  S
C1059      O1060   1.264       .  A
C1059      C1117   1.483       .  S
O1061      C1076   1.261       .  A
O1061     Al1069   1.890       .  S
C1062      O1072   1.258       .  A
C1062      O1063   1.265       .  A
C1062      C1156   1.480       .  S
O1063     Al1065   1.933       .  S
O1064      C1066   1.248       .  A
O1064     Al1065   1.858       .  S
Al1065     O1073   1.863       .  S
Al1065     O1075   1.948       .  S
Al1065     O1074   1.775       .  S
C1066      O1079   1.266       .  A
C1066      C1105   1.485       .  S
O1067      C1077   1.258       .  A
O1067     Al1069   1.882       .  S
O1068      C1081   1.267       .  A
O1068     Al1078   1.917       .  S
Al1069     O1082   1.931       .  S
Al1069     O1079   1.939       .  S
Al1069     O1074   1.781       .  S
O1070      C1077   1.264       .  A
O1070     Al1078   1.911       .  S
O1071      C1080   1.266       .  A
O1071     Al1078   1.942       .  S
O1072     Al1078   1.901       .  S
O1073      C1080   1.255       .  A
O1074     Al1078   1.786       .  S
O1075      C1076   1.271       .  A
C1076      C1348   1.503       .  S
C1077      C1216   1.461       .  S
C1080      C1228   1.472       .  S
C1081      O1082   1.266       .  A
C1081      C1141   1.499       .  S
O1083      C1562   1.265   1_554  A
O1083     Al1555   1.909       .  S
C1084      O1094   1.258       .  A
C1084      O1085   1.265       .  A
C1084      C1120   1.482       .  S
O1085     Al1087   1.932       .  S
O1086      C1088   1.253       .  A
O1086     Al1087   1.861       .  S
Al1087     O1095   1.863       .  S
Al1087     O1097   1.937       .  S
Al1087     O1096   1.777       .  S
C1088      O1101   1.269       .  A
C1088      C1108   1.478       .  S
O1089      C1099   1.259       .  A
O1089     Al1091   1.894       .  S
O1090      C1103   1.261       .  A
O1090     Al1564   1.891   1_554  S
Al1091     O1547   1.907       .  S
Al1091     O1568   1.948       .  S
Al1091     O1101   1.943       .  S
Al1091     O1096   1.782       .  S
O1092      C1099   1.264       .  A
O1092     Al1100   1.920       .  S
O1093      C1102   1.267       .  A
O1093     Al1100   1.942       .  S
O1094     Al1100   1.900       .  S
O1095      C1102   1.255       .  A
O1096     Al1100   1.777       .  S
O1097      C1098   1.268       .  A
C1098      O1547   1.264       .  A
C1098      C1749   1.498       .  S
C1099      C1180   1.463       .  S
Al1100     O1554   1.886       .  S
C1102      C1192   1.465       .  S
C1103      O1104   1.268       .  A
C1103      C1129   1.484       .  S
O1104     Al1555   1.950       .  S
C1105      C1106   1.402       .  A
C1105      C1110   1.423       .  A
C1106      C1107   1.397       .  A
C1106      H1115   1.084       .  S
C1107      C1108   1.417       .  A
C1107      S1111   1.805       .  S
C1108      C1109   1.398       .  A
C1109      C1110   1.400       .  A
C1109      H1116   1.083       .  S
C1110      S1112   1.809       .  S
S1111      H1114   1.408       .  S
S1112      H1113   1.407       .  S
C1117      C1118   1.405       .  A
C1117      C1122   1.413       .  A
C1118      C1119   1.399       .  A
C1118      H1127   1.083       .  S
C1119      C1120   1.411       .  A
C1119      S1123   1.804       .  S
C1120      C1121   1.408       .  A
C1121      C1122   1.407       .  A
C1121      H1128   1.084       .  S
C1122      S1124   1.803       .  S
S1123      H1126   1.406       .  S
S1124      H1125   1.406       .  S
C1129      C1130   1.399       .  A
C1129      C1134   1.412       .  A
C1130      C1131   1.399       .  A
C1130      H1139   1.083       .  S
C1131      C1132   1.422       .  A
C1131      S1135   1.813       .  S
C1132      C1133   1.414       .  A
C1133      C1134   1.413       .  A
C1133      H1140   1.084       .  S
C1134      S1136   1.803       .  S
S1135      H1138   1.406       .  S
S1136      H1137   1.405       .  S
C1141      C1142   1.407       .  A
C1141      C1146   1.423       .  A
C1142      C1143   1.408       .  A
C1142      H1151   1.084       .  S
C1143      C1144   1.417       .  A
C1143      S1147   1.805       .  S
C1144      C1145   1.399       .  A
C1145      C1146   1.402       .  A
C1145      H1152   1.081       .  S
C1146      S1148   1.801       .  S
S1147      H1150   1.404       .  S
S1148      H1149   1.408       .  S
C1153      C1154   1.411       .  A
C1153      C1158   1.418       .  A
C1154      C1155   1.402       .  A
C1154      H1163   1.084       .  S
C1155      C1156   1.408       .  A
C1155      S1159   1.803       .  S
C1156      C1157   1.403       .  A
C1157      C1158   1.409       .  A
C1157      H1164   1.082       .  S
C1158      S1160   1.808       .  S
S1159      H1162   1.405       .  S
S1160      H1625   1.407       .  S
H1161      S1624   1.407       .  S
C1165      C1166   1.404       .  A
C1165      C1170   1.421       .  A
C1166      C1167   1.399   1_455  A
C1166      H1175   1.082   1_455  S
C1167      C1168   1.411       .  A
C1167      S1171   1.806       .  S
C1168      C1169   1.399   1_655  A
C1169      C1170   1.397       .  A
C1169      H1176   1.083       .  S
C1170      S1172   1.812       .  S
S1171      H1174   1.407       .  S
S1172      H1173   1.407       .  S
C1177      C1178   1.401       .  A
C1177      C1182   1.415       .  A
C1178      H1651   1.084       .  S
C1179      C1180   1.411       .  A
C1179      S1647   1.801       .  S
C1180      C1181   1.397       .  A
C1181      H1188   1.085       .  S
C1182      S1184   1.804       .  S
S1183      C1643   1.801       .  S
S1183      H1186   1.406       .  S
S1184      H1185   1.401       .  S
H1187      C1642   1.084       .  S
C1189      C1190   1.405       .  A
C1189      C1194   1.409       .  A
C1190      C1191   1.402       .  A
C1190      H1663   1.084       .  S
C1191      C1192   1.410       .  A
C1191      S1659   1.802       .  S
C1192      C1193   1.401       .  A
C1193      C1194   1.394       .  A
C1193      H1200   1.085       .  S
C1194      S1196   1.802       .  S
S1195      C1655   1.801       .  S
S1195      H1198   1.406       .  S
S1196      H1197   1.407       .  S
H1199      C1654   1.084       .  S
C1201      C1206   1.415       .  A
C1202      C1667   1.413   1_444  A
C1202      H1675   1.082       .  S
C1203      C1666   1.413   1_665  A
C1203      C1668   1.420       .  A
C1203      S1207   1.810   1_565  S
C1204      C1479   1.516   1_554  S
C1204      C1667   1.425   1_554  A
C1204      C1205   1.411   1_655  A
C1205      H1212   1.083       .  S
C1206      S1208   1.802       .  S
S1207      H1210   1.406       .  S
S1208      H1209   1.407       .  S
H1211      C1666   1.082       .  S
C1213      C1214   1.400       .  A
C1213      C1218   1.409       .  A
C1214      H1223   1.085       .  S
C1215      C1216   1.410       .  A
C1215      S1219   1.802       .  S
C1216      C1217   1.403       .  A
C1217      H1224   1.084       .  S
C1218      S1220   1.807       .  S
S1219      H1222   1.406       .  S
S1220      H1221   1.405       .  S
C1225      C1226   1.398       .  A
C1225      C1230   1.418       .  A
C1226      C1227   1.388       .  A
C1226      H1235   1.085       .  S
C1227      C1228   1.414       .  A
C1227      S1231   1.801       .  S
C1228      C1229   1.402       .  A
C1229      C1230   1.408       .  A
C1229      H1236   1.083       .  S
C1230      S1232   1.808       .  S
S1231      H1234   1.400       .  S
S1232      H1233   1.406       .  S
C1237      C1238   1.410       .  A
C1237      C1242   1.415       .  A
C1238      H1247   1.083       .  S
C1239      C1240   1.417   1_455  A
C1239      S1243   1.801       .  S
C1241      C1242   1.405   1_655  A
C1241      H1248   1.083       .  S
C1242      S1244   1.802       .  S
S1243      H1246   1.408       .  S
S1244      H1245   1.408       .  S
C1249      C1250   1.394   1_455  A
C1249      C1254   1.407       .  A
C1250      C1251   1.393       .  A
C1250      H1259   1.084       .  S
C1251      C1252   1.422       .  A
C1251      S1255   1.811       .  S
C1252      C1253   1.406       .  A
C1253      C1254   1.401   1_655  A
C1253      H1260   1.083       .  S
C1254      S1256   1.802       .  S
S1255      H1258   1.407       .  S
S1256      H1257   1.406       .  S
C1261      C1262   1.404       .  A
C1261      C1266   1.416       .  A
C1262      C1263   1.401       .  A
C1262      H1271   1.083       .  S
C1263      C1264   1.411       .  A
C1263      S1267   1.804       .  S
C1264      C1265   1.396       .  A
C1265      C1266   1.389       .  A
C1265      H1272   1.085       .  S
C1266      S1268   1.805   1_554  S
S1267      H1270   1.405       .  S
S1268      H1269   1.405       .  S
C1273      C1274   1.401       .  A
C1273      C1278   1.413       .  A
C1274      C1275   1.400       .  A
C1274      H1283   1.084       .  S
C1275      C1276   1.412       .  A
C1275      S1279   1.802       .  S
C1276      C1277   1.396       .  A
C1277      C1278   1.393       .  A
C1277      H1284   1.085   1_554  S
C1278      S1744   1.801   1_554  S
S1279      H1282   1.404   1_565  S
S1280      C1742   1.802       .  S
S1280      H1745   1.406       .  S
H1281      S1744   1.406       .  S
C1285      C1562   1.493   1_554  S
C1285      C1286   1.408   1_554  A
C1285      C1290   1.416       .  A
C1286      C1287   1.405       .  A
C1286      H1759   1.084       .  S
C1287      C1288   1.416   1_556  A
C1287      S1291   1.801       .  S
C1288      C1289   1.408       .  A
C1289      C1290   1.403       .  A
C1289      H1296   1.084       .  S
C1290      S1292   1.803       .  S
S1291      H1294   1.407   1_556  S
S1292      H1293   1.408       .  S
H1295      C1750   1.084       .  S
C1297      C1298   1.400       .  A
C1297      C1302   1.420       .  A
C1298      C1299   1.392       .  A
C1298      H1307   1.082       .  S
C1299      C1300   1.422       .  A
C1299      S1303   1.815       .  S
C1300      C1301   1.404       .  A
C1301      C1302   1.406       .  A
C1301      H1308   1.084       .  S
C1302      S1304   1.801       .  S
S1303      H1306   1.407       .  S
S1304      H1305   1.408       .  S
C1309      C1310   1.405       .  A
C1309      C1314   1.408       .  A
C1310      C1311   1.399       .  A
C1310      H1319   1.083       .  S
C1311      C1312   1.417       .  A
C1311      S1315   1.811       .  S
C1312      C1313   1.414       .  A
C1313      C1314   1.404       .  A
C1313      H1320   1.083       .  S
C1314      S1316   1.803       .  S
S1315      H1318   1.407       .  S
S1316      H1781   1.407       .  S
H1317      S1780   1.407       .  S
C1321      C1322   1.402       .  A
C1321      C1326   1.410       .  A
C1322      C1323   1.393       .  A
C1322      H1331   1.085       .  S
C1323      C1324   1.407       .  A
C1323      S1327   1.801       .  S
C1324      C1325   1.402       .  A
C1325      C1326   1.396       .  A
C1325      H1332   1.083       .  S
C1326      S1328   1.804       .  S
S1327      H1330   1.405       .  S
S1328      H1329   1.406       .  S
C1333      C1334   1.399       .  A
C1333      C1338   1.413       .  A
C1334      C1335   1.394       .  A
C1334      H1343   1.084       .  S
C1335      C1336   1.408       .  A
C1335      S1339   1.808       .  S
C1336      C1337   1.397       .  A
C1337      C1338   1.394       .  A
C1337      H1344   1.084       .  S
C1338      S1340   1.801       .  S
S1340      H1341   1.405       .  S
C1345      C1346   1.403       .  A
C1345      C1350   1.413       .  A
C1346      C1347   1.406       .  A
C1346      H1355   1.083       .  S
C1347      C1348   1.423       .  A
C1347      S1351   1.811       .  S
C1348      C1349   1.411       .  A
C1349      C1350   1.405       .  A
C1349      H1356   1.083       .  S
C1350      S1352   1.803       .  S
S1351      H1354   1.407       .  S
S1352      H1353   1.407       .  S
C1357      C1358   1.406       .  A
C1357      C1362   1.418       .  A
C1358      C1359   1.412       .  A
C1358      H1367   1.082       .  S
C1359      C1360   1.417       .  A
C1359      S1363   1.805       .  S
C1360      C1361   1.399       .  A
C1361      C1362   1.390       .  A
C1361      H1368   1.084       .  S
C1362      S1364   1.804       .  S
S1363      H1366   1.407       .  S
S1364      H1365   1.401       .  S
C1369      C1370   1.409       .  A
C1369      C1374   1.410       .  A
C1370      C1371   1.404       .  A
C1370      H1379   1.084       .  S
C1371      C1372   1.409       .  A
C1371      S1375   1.803       .  S
C1372      C1373   1.405       .  A
C1373      C1374   1.394       .  A
C1373      H1380   1.084       .  S
C1374      S1376   1.805       .  S
S1375      H1378   1.406       .  S
S1376      H1377   1.407       .  S
C1381      C1382   1.400       .  A
C1381      C1386   1.414       .  A
C1382      C1383   1.405       .  A
C1382      H1391   1.083       .  S
C1383      C1384   1.416       .  A
C1383      S1387   1.807       .  S
C1384      C1385   1.400       .  A
C1385      C1386   1.396       .  A
C1385      H1392   1.084       .  S
C1386      S1388   1.800       .  S
S1387      H1390   1.407       .  S
S1388      H1389   1.408       .  S
O1393      C1408   1.265       .  A
O1393     Al1401   1.924       .  S
C1394      O1404   1.254       .  A
C1394      O1395   1.253       .  A
C1394      C1833   1.476       .  S
O1395     Al1397   1.901       .  S
O1396      C1398   1.259       .  A
O1396     Al1397   1.869       .  S
Al1397     O1405   1.880       .  S
Al1397     O1407   1.882       .  S
Al1397     O1406   1.792       .  S
C1398      O1411   1.263       .  A
C1398      C1797   1.467       .  S
O1399      C1409   1.262       .  A
O1399     Al1401   1.911       .  S
O1400      C1413   1.260       .  A
O1400     Al1410   1.898       .  S
Al1401     O1414   1.920       .  S
Al1401     O1411   1.921       .  S
Al1401     O1406   1.797       .  S
O1402      C1409   1.258       .  A
O1402     Al1410   1.886       .  S
O1403      C1412   1.262       .  A
O1403     Al1410   1.902       .  S
O1404     Al1410   1.885       .  S
O1405      C1412   1.258       .  A
O1406     Al1410   1.783       .  S
O1407      C1408   1.256       .  A
C1408      C1821   1.482       .  S
C1409      C1845   1.472       .  S
C1412      C1785   1.453       .  S
C1413      O1414   1.262       .  A
C1413      C1809   1.487       .  S
O1415     Al1423   1.949       .  S
C1416      O1426   1.267       .  A
C1416      O1417   1.257       .  A
C1416      C1761   1.486       .  S
O1417     Al1419   1.890       .  S
O1418      C1420   1.260       .  A
O1418     Al1419   1.902       .  S
Al1419     O1427   1.921       .  S
Al1419     O1429   1.876       .  S
Al1419     O1428   1.777       .  S
C1420      O1433   1.262       .  A
C1420      C1737   1.460       .  S
O1421      C1431   1.270       .  A
O1421     Al1423   1.939       .  S
O1422      C1435   1.265       .  A
O1422     Al1432   1.922       .  S
Al1423     O1436   1.923       .  S
Al1423     O1433   1.905       .  S
Al1423     O1428   1.776       .  S
O1424      C1431   1.259       .  A
O1424     Al1432   1.880       .  S
O1425      C1434   1.258       .  A
O1425     Al1432   1.877       .  S
O1426     Al1432   1.923       .  S
O1427      C1434   1.262       .  A
O1428     Al1432   1.768       .  S
C1430      C1773   1.484       .  S
C1431      C1848   1.482       .  S
C1434      C1728   1.455       .  S
C1435      O1436   1.267       .  A
C1435      C1752   1.499       .  S
O1437      C1452   1.263       .  A
O1437     Al1445   1.921       .  S
C1438      O1448   1.256       .  A
C1438      O1439   1.257       .  A
C1438      C1776   1.493       .  S
O1439     Al1441   1.914       .  S
O1440      C1442   1.263       .  A
O1440     Al1441   1.867       .  S
Al1441     O1449   1.874       .  S
Al1441     O1451   1.872       .  S
Al1441     O1450   1.779       .  S
C1442      O1455   1.267       .  A
C1442      C1689   1.470       .  S
O1443      C1453   1.254       .  A
O1443     Al1445   1.891       .  S
O1444      C1457   1.263       .  A
O1444     Al1454   1.898       .  S
Al1445     O1458   1.943       .  S
Al1445     O1455   1.931       .  S
Al1445     O1450   1.795       .  S
O1446      C1453   1.256       .  A
O1446     Al1454   1.874       .  S
O1447      C1456   1.265       .  A
O1447     Al1454   1.915       .  S
O1448     Al1454   1.899       .  S
O1449      C1456   1.259       .  A
O1450     Al1454   1.777       .  S
O1451      C1452   1.252       .  A
C1452      C1764   1.483       .  S
C1453      C1713   1.453       .  S
C1456      C1677   1.455       .  S
C1457      O1458   1.269       .  A
C1457      C1701   1.501       .  S
O1459      C1474   1.266       .  A
C1460      O1470   1.262       .  A
C1460      O1461   1.259       .  A
C1460      C1824   1.484       .  S
O1461     Al1463   1.916       .  S
O1462      C1464   1.259       .  A
O1462     Al1463   1.888       .  S
Al1463     O1471   1.911       .  S
Al1463     O1472   1.781       .  S
C1464      O1477   1.265       .  A
C1464      C1653   1.476       .  S
O1465      C1475   1.261       .  A
O1465     Al1467   1.917       .  S
O1466      C1479   1.266       .  A
O1466     Al1476   1.912       .  S
Al1467     O1480   1.961   1_556  S
Al1467     O1477   1.933       .  S
Al1467     O1472   1.784       .  S
O1468      C1475   1.255       .  A
O1468     Al1476   1.889       .  S
O1469      C1478   1.259       .  A
O1469     Al1476   1.894       .  S
O1470     Al1476   1.902       .  S
O1471      C1478   1.263       .  A
O1472     Al1476   1.774       .  S
O1473      C1474   1.260       .  A
C1474      C1836   1.472       .  S
C1475      C1716   1.479       .  S
C1478      C1641   1.472       .  S
C1479      O1480   1.274   1_556  A
O1481      C1496   1.264       .  A
O1481     Al1489   1.902       .  S
C1482      O1492   1.260       .  A
C1482      O1483   1.267       .  A
C1482      C1608   1.485       .  S
O1483     Al1485   1.938       .  S
O1484      C1486   1.250       .  A
O1484     Al1485   1.859       .  S
Al1485     O1493   1.877       .  S
Al1485     O1495   1.953       .  S
Al1485     O1494   1.782       .  S
C1486      O1499   1.265       .  A
C1486      C1629   1.485       .  S
O1487      C1497   1.259       .  A
O1487     Al1489   1.897       .  S
O1488     Al1498   1.909       .  S
Al1489     O1502   1.933       .  S
Al1489     O1499   1.933       .  S
Al1489     O1494   1.784       .  S
O1490      C1497   1.258       .  A
O1490     Al1498   1.890       .  S
O1491      C1500   1.261       .  A
O1491     Al1498   1.917       .  S
O1492     Al1498   1.907       .  S
O1493      C1500   1.257       .  A
O1494     Al1498   1.786       .  S
O1495      C1496   1.269       .  A
C1496      C1665   1.511       .  S
C1497      C1725   1.466       .  S
C1501      C1617   1.494       .  S
O1503      C1518   1.267       .  A
O1503     Al1511   1.928       .  S
C1504      O1514   1.263       .  A
C1504      O1505   1.257       .  A
C1504      C1596   1.502       .  S
O1505     Al1507   1.908       .  S
O1506      C1508   1.256       .  A
O1506     Al1507   1.875       .  S
Al1507     O1515   1.869       .  S
Al1507     O1517   1.926       .  S
Al1507     O1516   1.775       .  S
C1508      O1521   1.266       .  A
C1508      C1632   1.475       .  S
O1509      C1519   1.262       .  A
O1509     Al1511   1.898       .  S
O1510      C1523   1.265       .  A
O1510     Al1520   1.919       .  S
Al1511     O1524   1.921       .  S
Al1511     O1521   1.932       .  S
Al1511     O1516   1.785       .  S
O1512      C1519   1.260       .  A
O1512     Al1520   1.887       .  S
O1513      C1522   1.263       .  A
O1513     Al1520   1.915       .  S
O1514     Al1520   1.930       .  S
O1515      C1522   1.259       .  A
O1516     Al1520   1.785       .  S
O1517      C1518   1.265       .  A
C1518      C1704   1.505       .  S
C1519      C1788   1.466       .  S
C1523      O1524   1.265       .  A
C1523      C1581   1.489       .  S
O1525      C1540   1.262       .  A
O1525     Al1533   1.895       .  S
C1526      O1536   1.259       .  A
C1526      O1527   1.264       .  A
C1526      C1620   1.476       .  S
O1527     Al1529   1.928       .  S
O1528      C1530   1.250       .  A
O1528     Al1529   1.864       .  S
Al1529     O1537   1.869       .  S
Al1529     O1539   1.940       .  S
Al1529     O1538   1.779       .  S
C1530      O1543   1.264       .  A
C1530      C1569   1.486       .  S
O1531      C1541   1.258       .  A
O1531     Al1533   1.888       .  S
O1532      C1545   1.268       .  A
O1532     Al1542   1.917       .  S
Al1533     O1546   1.931       .  S
Al1533     O1543   1.932       .  S
Al1533     O1538   1.783       .  S
O1534      C1541   1.261       .  A
O1534     Al1542   1.904       .  S
O1535      C1544   1.262       .  A
O1535     Al1542   1.928       .  S
O1536     Al1542   1.900       .  S
O1537      C1544   1.255       .  A
O1538     Al1542   1.790       .  S
O1539      C1540   1.269       .  A
C1540      C1812   1.501       .  S
C1541      C1680   1.465       .  S
C1544      C1692   1.468       .  S
C1545      O1546   1.267       .  A
C1545      C1605   1.499       .  S
C1548      O1558   1.260       .  A
C1548      O1549   1.263       .  A
C1548      C1584   1.488       .  S
O1549     Al1551   1.926       .  S
O1550      C1552   1.254       .  A
O1550     Al1551   1.864       .  S
Al1551     O1559   1.869       .  S
Al1551     O1561   1.932       .  S
Al1551     O1560   1.777       .  S
C1552      O1565   1.269       .  A
C1552      C1572   1.479       .  S
O1553      C1563   1.258   1_556  A
O1553     Al1555   1.887   1_556  S
O1554      C1567   1.260       .  A
Al1555     O1565   1.944   1_554  S
Al1555     O1560   1.786   1_554  S
O1556      C1563   1.263       .  A
O1556     Al1564   1.920   1_554  S
O1557      C1566   1.268       .  A
O1557     Al1564   1.944       .  S
O1558     Al1564   1.915       .  S
O1559      C1566   1.258       .  A
O1560     Al1564   1.779       .  S
O1561      C1562   1.267       .  A
C1563      C1644   1.460       .  S
C1566      C1656   1.472       .  S
C1567      O1568   1.268       .  A
C1567      C1593   1.481       .  S
C1569      C1570   1.403       .  A
C1569      C1574   1.422       .  A
C1570      C1571   1.398       .  A
C1570      H1579   1.084       .  S
C1571      C1572   1.417       .  A
C1571      S1575   1.806       .  S
C1572      C1573   1.400       .  A
C1573      C1574   1.401       .  A
C1573      H1580   1.083       .  S
C1574      S1576   1.809       .  S
S1575      H1578   1.408       .  S
S1576      H1577   1.407       .  S
C1581      C1582   1.406       .  A
C1581      C1586   1.414       .  A
C1582      C1583   1.400       .  A
C1582      H1591   1.085       .  S
C1583      C1584   1.413       .  A
C1583      S1587   1.805       .  S
C1584      C1585   1.409       .  A
C1585      C1586   1.411       .  A
C1585      H1592   1.084       .  S
C1586      S1588   1.803       .  S
S1587      H1590   1.407       .  S
S1588      H1589   1.406       .  S
C1593      C1594   1.398       .  A
C1593      C1598   1.410       .  A
C1594      C1595   1.399       .  A
C1594      H1603   1.083       .  S
C1595      C1596   1.424       .  A
C1595      S1599   1.813       .  S
C1596      C1597   1.414       .  A
C1597      C1598   1.412       .  A
C1597      H1604   1.083       .  S
C1598      S1600   1.804       .  S
S1599      H1602   1.407       .  S
S1600      H1601   1.406       .  S
C1605      C1606   1.407       .  A
C1605      C1610   1.423       .  A
C1606      C1607   1.409       .  A
C1606      H1615   1.084       .  S
C1607      C1608   1.417       .  A
C1607      S1611   1.805       .  S
C1608      C1609   1.398       .  A
C1609      C1610   1.402       .  A
C1609      H1616   1.084       .  S
C1610      S1612   1.801       .  S
S1611      H1614   1.404       .  S
S1612      H1613   1.408       .  S
C1617      C1618   1.410       .  A
C1617      C1622   1.417       .  A
C1618      C1619   1.400       .  A
C1618      H1627   1.083       .  S
C1619      C1620   1.408       .  A
C1619      S1623   1.803       .  S
C1620      C1621   1.402       .  A
C1621      C1622   1.407       .  A
C1621      H1628   1.083       .  S
C1622      S1624   1.807       .  S
S1623      H1626   1.405       .  S
C1629      C1630   1.404       .  A
C1629      C1634   1.422       .  A
C1630      C1631   1.401   1_455  A
C1630      H1639   1.082   1_455  S
C1631      C1632   1.411       .  A
C1631      S1635   1.807       .  S
C1632      C1633   1.398   1_655  A
C1633      C1634   1.398       .  A
C1633      H1640   1.083       .  S
C1634      S1636   1.810       .  S
S1635      H1638   1.407       .  S
S1636      H1637   1.407       .  S
C1641      C1642   1.402   1_556  A
C1641      C1646   1.417       .  A
C1643      C1644   1.412       .  A
C1644      C1645   1.396   1_554  A
C1645      H1652   1.085       .  S
C1646      S1648   1.804       .  S
S1647      H1650   1.406       .  S
S1648      H1649   1.401       .  S
C1653      C1654   1.406   1_556  A
C1653      C1658   1.411       .  A
C1654      C1655   1.404       .  A
C1655      C1656   1.411   1_554  A
C1656      C1657   1.402       .  A
C1657      C1658   1.395       .  A
C1657      H1664   1.085       .  S
C1658      S1660   1.802       .  S
S1659      H1662   1.406       .  S
S1660      H1661   1.407       .  S
C1665      C1670   1.420       .  A
C1667      S1671   1.811   1_565  S
C1668      C1669   1.410       .  A
C1669      H1676   1.083       .  S
C1670      S1672   1.802       .  S
S1671      H1674   1.406       .  S
S1672      H1673   1.408       .  S
C1677      C1678   1.400       .  A
C1677      C1682   1.407       .  A
C1678      H1687   1.084       .  S
C1679      C1680   1.410       .  A
C1679      S1683   1.801       .  S
C1680      C1681   1.404       .  A
C1681      H1688   1.084       .  S
C1682      S1684   1.803       .  S
S1683      H1686   1.406       .  S
S1684      H1685   1.406       .  S
C1689      C1690   1.398       .  A
C1689      C1694   1.415       .  A
C1690      C1691   1.385       .  A
C1690      H1699   1.085       .  S
C1691      C1692   1.412       .  A
C1691      S1695   1.801       .  S
C1692      C1693   1.403       .  A
C1693      C1694   1.407       .  A
C1693      H1700   1.083       .  S
C1694      S1696   1.807       .  S
S1695      H1698   1.396       .  S
S1696      H1697   1.407       .  S
C1701      C1702   1.410       .  A
C1701      C1706   1.414       .  A
C1702      H1711   1.084       .  S
C1703      C1704   1.417   1_455  A
C1703      S1707   1.801       .  S
C1705      C1706   1.407   1_655  A
C1705      H1712   1.083       .  S
C1706      S1708   1.802       .  S
S1707      H1710   1.408       .  S
S1708      H1709   1.408       .  S
C1713      C1714   1.391   1_455  A
C1713      C1718   1.407       .  A
C1714      C1715   1.390       .  A
C1714      H1723   1.084       .  S
C1715      C1716   1.423       .  A
C1715      S1719   1.809       .  S
C1716      C1717   1.407       .  A
C1717      C1718   1.402   1_655  A
C1717      H1724   1.083       .  S
C1718      S1720   1.803       .  S
S1719      H1722   1.407       .  S
S1720      H1721   1.406       .  S
C1725      C1726   1.403       .  A
C1725      C1730   1.414       .  A
C1726      C1727   1.397       .  A
C1726      H1735   1.084       .  S
C1727      C1728   1.409       .  A
C1727      S1731   1.803       .  S
C1728      C1729   1.397       .  A
C1729      C1730   1.390       .  A
C1729      H1736   1.085       .  S
C1730      S1732   1.805       .  S
S1731      H1734   1.405       .  S
S1732      H1733   1.405       .  S
C1737      C1738   1.399       .  A
C1737      C1742   1.412       .  A
C1738      C1739   1.396       .  A
C1738      H1747   1.084       .  S
C1739      C1740   1.411       .  A
C1739      S1743   1.799       .  S
C1740      C1741   1.398       .  A
C1741      C1742   1.396       .  A
C1741      H1748   1.084       .  S
S1743      H1746   1.404   1_565  S
C1749      C1750   1.409       .  A
C1749      C1754   1.418       .  A
C1750      C1751   1.406       .  A
C1751      C1752   1.416       .  A
C1751      S1755   1.801       .  S
C1752      C1753   1.409       .  A
C1753      C1754   1.403       .  A
C1753      H1760   1.084       .  S
C1754      S1756   1.802       .  S
S1755      H1758   1.408       .  S
S1756      H1757   1.407       .  S
C1761      C1762   1.400       .  A
C1761      C1766   1.419       .  A
C1762      C1763   1.392       .  A
C1762      H1771   1.082       .  S
C1763      C1764   1.423       .  A
C1763      S1767   1.815       .  S
C1764      C1765   1.404       .  A
C1765      C1766   1.405       .  A
C1765      H1772   1.084       .  S
C1766      S1768   1.801       .  S
S1767      H1770   1.407       .  S
S1768      H1769   1.408       .  S
C1773      C1774   1.406       .  A
C1773      C1778   1.410       .  A
C1774      C1775   1.399       .  A
C1774      H1783   1.082       .  S
C1775      C1776   1.417       .  A
C1775      S1779   1.810       .  S
C1776      C1777   1.412       .  A
C1777      C1778   1.403       .  A
C1777      H1784   1.083       .  S
C1778      S1780   1.803       .  S
S1779      H1782   1.406       .  S
C1785      C1786   1.401       .  A
C1785      C1790   1.407       .  A
C1786      C1787   1.398       .  A
C1786      H1795   1.084       .  S
C1787      C1788   1.412       .  A
C1787      S1791   1.803       .  S
C1788      C1789   1.405       .  A
C1789      C1790   1.391       .  A
C1789      H1796   1.085       .  S
C1790      S1792   1.808       .  S
S1791      H1794   1.407       .  S
S1792      H1793   1.403       .  S
C1797      C1798   1.402       .  A
C1797      C1802   1.415       .  A
C1798      C1799   1.394       .  A
C1798      H1807   1.083       .  S
C1799      C1800   1.409       .  A
C1799      S1803   1.809       .  S
C1800      C1801   1.399       .  A
C1801      C1802   1.398       .  A
C1801      H1808   1.084       .  S
C1802      S1804   1.801       .  S
S1804      H1805   1.407       .  S
C1809      C1810   1.404       .  A
C1809      C1814   1.412       .  A
C1810      C1811   1.403       .  A
C1810      H1819   1.084       .  S
C1811      C1812   1.421       .  A
C1811      S1815   1.803       .  S
C1812      C1813   1.411       .  A
C1813      C1814   1.406       .  A
C1813      H1820   1.084       .  S
C1814      S1816   1.803       .  S
S1815      H1818   1.408       .  S
S1816      H1817   1.407       .  S
C1821      C1822   1.403       .  A
C1821      C1826   1.416       .  A
C1822      C1823   1.409       .  A
C1822      H1831   1.083       .  S
C1823      C1824   1.418       .  A
C1823      S1827   1.805       .  S
C1824      C1825   1.401       .  A
C1825      C1826   1.392       .  A
C1825      H1832   1.084       .  S
C1826      S1828   1.804       .  S
S1827      H1830   1.407       .  S
S1828      H1829   1.406       .  S
C1833      C1834   1.410       .  A
C1833      C1838   1.409       .  A
C1834      C1835   1.406       .  A
C1834      H1843   1.084       .  S
C1835      C1836   1.410       .  A
C1835      S1839   1.803       .  S
C1836      C1837   1.404       .  A
C1837      C1838   1.390       .  A
C1837      H1844   1.084       .  S
C1838      S1840   1.805       .  S
S1839      H1842   1.406       .  S
S1840      H1841   1.407       .  S
C1845      C1846   1.400       .  A
C1845      C1850   1.412       .  A
C1846      C1847   1.405       .  A
C1846      H1855   1.083       .  S
C1847      C1848   1.418       .  A
C1847      S1851   1.808       .  S
C1848      C1849   1.402       .  A
C1849      C1850   1.395       .  A
C1849      H1856   1.084       .  S
C1850      S1852   1.802       .  S
S1851      H1854   1.407       .  S
S1852      H1853   1.407       .  S
