geometry optimzed in LAMMPS
_audit_creation_date              2020-12-01 
_audit_creation_method            'lammps2cif' 
_symmetry_space_group_name_H-M    'P1' 
_symmetry_Int_Tables_number       1 
_symmetry_cell_setting            triclinic 
loop_ 
_symmetry_equiv_pos_as_xyz 
  x,y,z 
_cell_length_a                    31.33304937 
_cell_length_b                    32.45891006953978 
_cell_length_c                    28.94185590501848 
_cell_angle_alpha                 93.60391497024429 
_cell_angle_beta                  97.18911552040952 
_cell_angle_gamma                 76.95423207812222 
loop_ 
_atom_site_label 
_atom_site_type_symbol 
_atom_site_fract_x 
_atom_site_fract_y 
_atom_site_fract_z 
_atom_site_charge 
C1          C  0.38340452  0.09246568  0.33008332     0.02900
C2          C  0.35669868  0.06225966  0.32945735    -0.13200
C3          C  0.32533807  0.06568134  0.36194321     0.00400
C4          C  0.32112016  0.10015995  0.39524980    -0.11700
C5          C  0.34912926  0.12893548  0.39988089     0.02900
C6          C  0.37945355  0.12497681  0.36612690    -0.11100
H7          H  0.36022555  0.03628923  0.30383001     0.08500
H8          H  0.29597684  0.10469155  0.41814522     0.06100
H9          H  0.40015735  0.14762593  0.36775415     0.05900
C10         C  0.38950757  0.33169055  0.07889854     0.02900
C11         C  0.36144459  0.37307935  0.07459678    -0.13200
C12         C  0.36445930  0.40649463  0.10863592     0.00400
C13         C  0.39868976  0.39878773  0.14532541    -0.11700
C14         C  0.42885410  0.35927810  0.15043204     0.02900
C15         C  0.42381477  0.32582113  0.11714556    -0.11100
H16         H  0.33571130  0.37889585  0.04580607     0.08500
H17         H  0.40132820  0.42406558  0.17107073     0.06100
H18         H  0.44587857  0.29509521  0.12163896     0.05900
C19         C  0.17296932  0.40728390  0.42059617     0.02900
C20         C  0.15049938  0.39700256  0.37754914    -0.13200
C21         C  0.11968818  0.37084342  0.37263716     0.00400
C22         C  0.11478973  0.35071594  0.41356448    -0.11700
C23         C  0.13939951  0.35570648  0.45791013     0.02900
C24         C  0.16760211  0.38575633  0.46083089    -0.11100
H25         H  0.15834360  0.40959655  0.34732858     0.08500
H26         H  0.09143265  0.33089693  0.41121019     0.06100
H27         H  0.18480183  0.39291762  0.49385278     0.05900
C28         C  0.13654480  0.09754458  0.14055861     0.02900
C29         C  0.10120249  0.09579554  0.16560627    -0.13200
C30         C  0.06436999  0.13049166  0.16794314     0.00400
C31         C  0.06423966  0.16815474  0.14364651    -0.11700
C32         C  0.10025268  0.17066574  0.11821823     0.02900
C33         C  0.13535450  0.13464138  0.11763805    -0.11700
H34         H  0.10189658  0.06685665  0.18249531     0.08500
H35         H  0.03660771  0.19498988  0.14458901     0.06100
H36         H  0.16296381  0.13512697  0.09867102     0.05900
O37         O  0.98658785  0.13980759  0.18292233    -0.72000
O38         O  0.41014699  0.10095468  0.25460428    -0.72200
O39         O  0.44823508  0.16690332  0.26208930    -0.72000
O40         O  0.46821161  0.06782348  0.18469023    -0.72000
O41         O  0.98975603  0.04154481  0.24143760    -0.72000
O42         O  0.98939289  0.14508767  0.29724909    -0.72000
O43         O  0.45895991  0.07845728  0.31253513    -0.72000
O44         O  0.03573795  0.10267518  0.23165162    -0.72200
V45         V  0.45668270  0.11707256  0.22489161     1.35200
V46         V  0.98966216  0.09467037  0.26774427     1.35200
C47         C  0.02723331  0.12501481  0.19554933     0.77300
C48         C  0.41858610  0.08917010  0.29691133     0.77300
C49         C  0.96214888  0.17710402  0.28331896     0.77200
C50         C  0.98556795  0.04069091  0.19822344     0.77200
O51         O  0.16312725  0.29033308  0.50218153    -0.72000
O52         O  0.13156789  0.20118287  0.06000812    -0.72200
O53         O  0.10883913  0.23843109  0.48424994    -0.72000
O54         O  0.18845206  0.25313712  0.58746720    -0.72000
O55         O  0.13628185  0.30502513  0.10768132    -0.72000
O56         O  0.05603905  0.27684890  0.01147116    -0.72000
O57         O  0.08519736  0.24687875  0.09703896    -0.72000
O58         O  0.10610863  0.33386405  0.52507204    -0.72200
V59         V  0.14806707  0.24664573  0.53612345     1.35200
V60         V  0.09677481  0.29005135  0.05835925     1.35200
C61         C  0.13676281  0.32634543  0.49789837     0.77300
C62         C  0.10470590  0.20820973  0.09056287     0.77300
C63         C  0.06959506  0.25476199  0.97685039     0.77200
C64         C  0.17495925  0.28280507  0.11179533     0.77200
O65         O  0.29711975  0.45473508  0.07809619    -0.72000
O66         O  0.17365744  0.03668748  0.09827189    -0.72200
O67         O  0.26579156  0.53912143  0.06505994    -0.72000
O68         O  0.22421160  0.45073941  0.11133438    -0.72000
O69         O  0.25532837  0.97339146  0.16620763    -0.72000
O70         O  0.27623568  0.06868081  0.11561168    -0.72000
O71         O  0.21129606  0.05723590  0.16001717    -0.72000
O72         O  0.32580492  0.47199434  0.14655513    -0.72200
V73         V  0.24437586  0.49590849  0.08840679     1.35200
V74         V  0.26386569  0.02070139  0.13962030     1.35200
C75         C  0.32841357  0.44679581  0.11061678     0.77300
C76         C  0.17470643  0.06095554  0.13421623     0.77300
C77         C  0.28579074  0.56323805  0.09159243     0.77200
C78         C  0.23709190  0.44231950  0.15349611     0.77200
O79         O  0.09553824  0.33844475  0.29576394    -0.72000
O80         O  0.50160034  0.33012346  0.19349379    -0.72200
O81         O  0.08011133  0.36821419  0.20624864    -0.72000
O82         O  0.02567959  0.30495686  0.27111878    -0.72000
O83         O  0.48502185  0.35525124  0.31472026    -0.72000
O84         O  0.52145374  0.42074215  0.23217218    -0.72000
O85         O  0.45717840  0.38114784  0.22669579    -0.72000
O86         O  0.05605101  0.39883446  0.31675384    -0.72200
V87         V  0.05205315  0.33746855  0.24035945     1.35200
V88         V  0.50411038  0.38752086  0.27329432     1.35200
C89         C  0.08945982  0.36893799  0.32638329     0.77300
C90         C  0.46395851  0.35555318  0.19205601     0.77300
C91         C  0.55172905  0.40451316  0.20710851     0.77200
C92         C  0.49917005  0.31599261  0.31083048     0.77200
O93         O  0.21494108  0.03295575  0.42698546    -0.72000
O94         O  0.22175071  0.98496197  0.30786582    -0.72200
O95         O  0.18166041  0.47759319  0.40339775    -0.72000
O96         O  0.25501882  0.04553974  0.35647374    -0.72000
O97         O  0.31251905  0.99580960  0.37542388    -0.72000
O98         O  0.24258325  0.43302230  0.42452953    -0.72000
O99         O  0.27412671  0.44086484  0.34396470    -0.72000
O100        O  0.27853000  0.50214313  0.45771910    -0.72200
V101        V  0.21843906  0.00766882  0.36792021     1.35200
V102        V  0.27432223  0.47161973  0.40091799     1.35200
C103        C  0.25107069  0.02643500  0.45249722     0.77300
C104        C  0.24245641  0.45239726  0.31312439     0.77300
C105        C  0.20042308  0.44121644  0.41892319     0.77200
C106        C  0.29671316  0.03382650  0.36305840     0.77200
O107        O  0.36872684  0.15703207  0.47927594    -0.72000
O108        O  0.39821914  0.25598765  0.05556515    -0.72200
O109        O  0.33703870  0.21236151  0.05681311    -0.72000
O110        O  0.42616985  0.20791658  0.98121652    -0.72000
O111        O  0.38337980  0.24820070  0.43710081    -0.72000
O112        O  0.29276265  0.24726716  0.50800804    -0.72000
O113        O  0.35341094  0.29975042  0.00901022    -0.72000
O114        O  0.32591950  0.20124760  0.43153475    -0.72200
V115        V  0.38095050  0.20977411  0.01696837     1.35200
V116        V  0.33910606  0.24687145  0.47319990     1.35200
C117        C  0.34684394  0.16347583  0.43901060     0.77300
C118        C  0.38052499  0.29432873  0.04610046     0.77300
C119        C  0.30278388  0.24119846  0.04927630     0.77200
C120        C  0.41883424  0.22980475  0.94558814     0.77200
C121        C  0.23849812  0.10265646  0.47821132    -0.02000
C122        C  0.27262650  0.57258685  0.48674627     0.07700
C123        C  0.31877821  0.56572155  0.50175991    -0.02100
C124        C  0.33421043  0.58275261  0.04494410    -0.02100
C125        C  0.29999796  0.59817987  0.07200064     0.07800
C126        C  0.23933700  0.13082028  0.01531951    -0.02300
Br127      Br  0.22475027  0.19029486  0.00951664    -0.00900
Br128      Br  0.19097113  0.12364299  0.43073649    -0.01000
Br129      Br  0.39175045  0.59119991  0.06655431    -0.00900
Br130      Br  0.36348291  0.53068779  0.46795247    -0.00900
C131        C  0.20947317  0.90616144  0.19040885    -0.02000
C132        C  0.23246209  0.40429226  0.17586881     0.07700
C133        C  0.27153104  0.38614661  0.20399775    -0.02100
C134        C  0.27757590  0.40391547  0.24966071    -0.02100
C135        C  0.24046983  0.43090804  0.26757210     0.07800
C136        C  0.20991796  0.93612894  0.22684865    -0.02300
Br137      Br  0.17625180  0.99304310  0.21560380    -0.00900
Br138      Br  0.20598788  0.85276889  0.21330786    -0.01000
Br139      Br  0.33593752  0.40826392  0.27487381    -0.00900
Br140      Br  0.31879084  0.34878633  0.17665642    -0.00900
C141        C  0.03042789  0.21000720  0.43523190    -0.02000
C142        C  0.03802707  0.24827308  0.93935353     0.07700
C143        C  0.00408154  0.28360906  0.92730981    -0.02100
C144        C  0.46144434  0.27752970  0.92979667    -0.02100
C145        C  0.45542395  0.23569257  0.92497271     0.07800
C146        C  0.49411959  0.19864985  0.43165248    -0.02300
Br147      Br  0.48463905  0.14183573  0.42028678    -0.00900
Br148      Br  0.07661165  0.16044828  0.44909847    -0.01000
Br149      Br  0.41254860  0.32665068  0.92860419    -0.00900
Br150      Br  0.01321756  0.34067524  0.93716185    -0.00900
C151        C  0.25557966  0.30709805  0.08144596    -0.02000
C152        C  0.27873703  0.26411927  0.08733781     0.07700
C153        C  0.28069089  0.24396877  0.63116187    -0.02100
C154        C  0.24988481  0.26618341  0.66043417    -0.02100
C155        C  0.21088372  0.29759033  0.13898236     0.07800
C156        C  0.22267506  0.32495750  0.10993790    -0.02300
Br157      Br  0.17855635  0.37466540  0.08913845    -0.00900
Br158      Br  0.26391158  0.34145346  0.03297253    -0.01000
Br159      Br  0.24342786  0.24502358  0.71897471    -0.00900
Br160      Br  0.31792677  0.19059883  0.65044836    -0.00900
C161        C  0.09251548  0.46465463  0.21302955    -0.02000
C162        C  0.56904486  0.43248975  0.18203552     0.07700
C163        C  0.54320701  0.44566830  0.14050336    -0.02100
C164        C  0.52057370  0.99606507  0.12883770    -0.02100
C165        C  0.02246897  0.01304462  0.17634152     0.07800
C166        C  0.06322658  0.99807376  0.20544287    -0.02300
Br167      Br  0.08032927  0.02339831  0.26612342    -0.00900
Br168      Br  0.11531000  0.44628337  0.27550157    -0.01000
Br169      Br  0.47381635  0.02827546  0.08776351    -0.00900
Br170      Br  0.53518804  0.40343427  0.09254227    -0.00900
C171        C  0.01963863  0.25789067  0.33849948    -0.02000
C172        C  0.49030186  0.28687399  0.34084202     0.07700
C173        C  0.44749601  0.27999805  0.33369369    -0.02100
C174        C  0.44169005  0.23908252  0.32460376    -0.02100
C175        C  0.96828074  0.21627984  0.30497098     0.07800
C176        C  0.01217201  0.21922014  0.32206736    -0.02300
Br177      Br  0.06466546  0.17358325  0.31797204    -0.00900
Br178      Br  0.07992857  0.26327489  0.35747831    -0.01000
Br179      Br  0.38293135  0.22843272  0.31320662    -0.00900
Br180      Br  0.39787870  0.32644759  0.32824025    -0.00900
C181        C  0.38311591  0.09582211  0.83036617     0.02900
C182        C  0.35803261  0.06460930  0.83138003    -0.13200
C183        C  0.32729546  0.06772698  0.86432780     0.00400
C184        C  0.32216070  0.10264865  0.89699608    -0.11700
C185        C  0.34797635  0.13321899  0.89954580     0.02900
C186        C  0.37762883  0.12971992  0.86497809    -0.11100
H187        H  0.36232858  0.03800182  0.80657336     0.08500
H188        H  0.29788588  0.10624081  0.92088177     0.06100
H189        H  0.39681899  0.15353431  0.86509728     0.05900
C190        C  0.38872126  0.32777482  0.58112289     0.02900
C191        C  0.35937783  0.36871506  0.57717335    -0.13200
C192        C  0.36374571  0.40338848  0.60921390     0.00400
C193        C  0.39973395  0.39710150  0.64392039    -0.11700
C194        C  0.43070565  0.35811981  0.64908317     0.02900
C195        C  0.42480590  0.32349384  0.61760211    -0.11100
H196        H  0.33193191  0.37332728  0.55013555     0.08500
H197        H  0.40332783  0.42332507  0.66804966     0.06100
H198        H  0.44772690  0.29321997  0.62199968     0.05900
C199        C  0.17605796  0.40534995  0.91711993     0.02900
C200        C  0.15396313  0.39554405  0.87337264    -0.13200
C201        C  0.12164767  0.37070994  0.86776037     0.00400
C202        C  0.11664386  0.35004996  0.90819746    -0.11700
C203        C  0.14121107  0.35433665  0.95272087     0.02900
C204        C  0.16967720  0.38391837  0.95678260    -0.11100
H205        H  0.16328930  0.40741743  0.84342312     0.08500
H206        H  0.09357341  0.32991719  0.90509713     0.06100
H207        H  0.18615732  0.39073601  0.99037718     0.05900
C208        C  0.14865696  0.09661642  0.64911717     0.02900
C209        C  0.11310060  0.09255452  0.67286006    -0.13200
C210        C  0.07492887  0.12589676  0.67510964     0.00400
C211        C  0.07329735  0.16439694  0.65182053    -0.11700
C212        C  0.10910356  0.16931642  0.62758399     0.02900
C213        C  0.14603003  0.13483468  0.62750180    -0.11700
H214        H  0.11455764  0.06285376  0.68859039     0.08500
H215        H  0.04438930  0.18996509  0.65225330     0.06100
H216        H  0.17345678  0.13722715  0.60914322     0.05900
O217        O  0.99688251  0.13206008  0.68677864    -0.72000
O218        O  0.41075672  0.10154055  0.75446212    -0.72200
O219        O  0.44735354  0.16815029  0.75820601    -0.72000
O220        O  0.47095218  0.06555574  0.68687109    -0.72000
O221        O  0.00158966  0.03450360  0.74358517    -0.72000
O222        O  0.99591848  0.13885908  0.80135108    -0.72000
O223        O  0.45884910  0.08119066  0.81367145    -0.72000
O224        O  0.04567897  0.09646828  0.73740390    -0.72200
V225        V  0.45762912  0.11656044  0.72422778     1.35200
V226        V  0.99852663  0.08772918  0.77122538     1.35200
C227        C  0.03749439  0.11849775  0.70101225     0.77300
C228        C  0.41865999  0.09155478  0.79742382     0.77300
C229        C  0.96898301  0.17055612  0.78558727     0.77200
C230        C  0.99529160  0.03383717  0.70020607     0.77200
O231        O  0.16353028  0.28931506  0.99722949    -0.72000
O232        O  0.13513070  0.20100820  0.56658194    -0.72200
O233        O  0.10960784  0.23764799  0.97679451    -0.72000
O234        O  0.18539886  0.25273198  0.08290087    -0.72000
O235        O  0.14068702  0.30570884  0.61375380    -0.72000
O236        O  0.05698073  0.27599149  0.52250453    -0.72000
O237        O  0.09130002  0.24602847  0.60703592    -0.72000
O238        O  0.10607725  0.33358026  0.01822680    -0.72200
V239        V  0.14665645  0.24614704  0.03022096     1.35200
V240        V  0.09952728  0.28989897  0.56680512     1.35200
C241        C  0.13757127  0.32546587  0.99230112     0.77300
C242        C  0.11070738  0.20744955  0.59928695     0.77300
C243        C  0.06893962  0.25499362  0.48664714     0.77200
C244        C  0.17930810  0.28349546  0.61638090     0.77200
O245        O  0.29652829  0.45245742  0.57923402    -0.72000
O246        O  0.18499947  0.03608604  0.60543855    -0.72200
O247        O  0.26611087  0.53733049  0.56680053    -0.72000
O248        O  0.22413255  0.44978505  0.61354485    -0.72000
O249        O  0.26870088  0.97345777  0.66940683    -0.72000
O250        O  0.28872739  0.06829074  0.61668217    -0.72000
O251        O  0.22496421  0.05771674  0.66462491    -0.72000
O252        O  0.32655941  0.46976243  0.64702127    -0.72200
V253        V  0.24445075  0.49435994  0.59035238     1.35200
V254        V  0.27646034  0.02078079  0.64202111     1.35200
C255        C  0.32819036  0.44419886  0.61131505     0.77300
C256        C  0.18731384  0.06074324  0.64094692     0.77300
C257        C  0.28564260  0.56172742  0.59343383     0.77200
C258        C  0.23810487  0.44010775  0.65519861     0.77200
O259        O  0.09659906  0.34296676  0.78821590    -0.72000
O260        O  0.50523882  0.33191695  0.69062833    -0.72200
O261        O  0.07471805  0.37639497  0.70015889    -0.72000
O262        O  0.02854700  0.30656754  0.76480492    -0.72000
O263        O  0.48806641  0.35829422  0.81172747    -0.72000
O264        O  0.52423636  0.42280137  0.72871624    -0.72000
O265        O  0.46024914  0.38256010  0.72364684    -0.72000
O266        O  0.05440585  0.39877474  0.81608901    -0.72200
V267        V  0.05091577  0.34249632  0.73447753     1.35200
V268        V  0.50694777  0.38998253  0.77010827     1.35200
C269        C  0.08989268  0.37046529  0.82195967     0.77300
C270        C  0.46702237  0.35635403  0.68949540     0.77300
C271        C  0.55537642  0.40674916  0.70471890     0.77200
C272        C  0.50149241  0.31904950  0.80740137     0.77200
O273        O  0.21297151  0.03433674  0.92212344    -0.72000
O274        O  0.22985404  0.98452108  0.80521940    -0.72200
O275        O  0.18442468  0.47653681  0.90436896    -0.72000
O276        O  0.25783258  0.04648497  0.85559814    -0.72000
O277        O  0.31505343  0.99816701  0.87946764    -0.72000
O278        O  0.24565638  0.43113494  0.92189153    -0.72000
O279        O  0.27290166  0.43914556  0.84016127    -0.72000
O280        O  0.28394873  0.50013371  0.95397124    -0.72200
V281        V  0.22127908  0.00797029  0.86409582     1.35200
V282        V  0.27660259  0.46978714  0.89714823     1.35200
C283        C  0.24749520  0.02862761  0.95031253     0.77300
C284        C  0.23826328  0.44931098  0.81258089     0.77300
C285        C  0.20346563  0.43946090  0.91739721     0.77200
C286        C  0.29928874  0.03560191  0.86527722     0.77200
O287        O  0.36751655  0.16180299  0.97849648    -0.72000
O288        O  0.39825409  0.25134602  0.55809836    -0.72200
O289        O  0.33737436  0.20684119  0.55757451    -0.72000
O290        O  0.42735533  0.20344305  0.48420609    -0.72000
O291        O  0.38118204  0.25153960  0.93378369    -0.72000
O292        O  0.29231779  0.25424892  0.00846091    -0.72000
O293        O  0.35287773  0.29481961  0.51182397    -0.72000
O294        O  0.32346686  0.20570970  0.93131596    -0.72200
V295        V  0.38167611  0.20484836  0.51870738     1.35200
V296        V  0.33795009  0.25177717  0.97174883     1.35200
C297        C  0.34517400  0.16804120  0.93849523     0.77300
C298        C  0.37999981  0.28971576  0.54887640     0.77300
C299        C  0.30316464  0.23542667  0.54922092     0.77200
C300        C  0.42090466  0.22649999  0.44969509     0.77200
C301        C  0.23245277  0.10472371  0.97598188    -0.02000
C302        C  0.27734960  0.57054551  0.98487973     0.07700
C303        C  0.32307432  0.56404419  0.00139316    -0.02100
C304        C  0.33136141  0.58352986  0.54524667    -0.02100
C305        C  0.29837399  0.59763370  0.57406441     0.07800
C306        C  0.24811131  0.12888724  0.51648382    -0.02300
Br307      Br  0.22326221  0.18749395  0.51717742    -0.00900
Br308      Br  0.19009189  0.12604482  0.92408791    -0.01000
Br309      Br  0.39037809  0.58762221  0.56676043    -0.00900
Br310      Br  0.36870001  0.53126288  0.96716788    -0.00900
C311        C  0.22887437  0.89939649  0.69173670    -0.02000
C312        C  0.22909687  0.40406759  0.67691772     0.07700
C313        C  0.26401811  0.38079567  0.70752914    -0.02100
C314        C  0.26228136  0.38933980  0.75594714    -0.02100
C315        C  0.23123967  0.42566925  0.76920682     0.07800
C316        C  0.22434902  0.93042628  0.72713288    -0.02300
Br317      Br  0.18519314  0.98432374  0.71257052    -0.00900
Br318      Br  0.23393105  0.84498167  0.71769349    -0.01000
Br319      Br  0.29212428  0.34892171  0.80099297    -0.00900
Br320      Br  0.31499215  0.34528190  0.68459951    -0.00900
C321        C  0.03299743  0.20670123  0.92909725    -0.02000
C322        C  0.03595199  0.25068883  0.44962118     0.07700
C323        C  0.00298413  0.28712917  0.43895418    -0.02100
C324        C  0.46411206  0.27545850  0.43851076    -0.02100
C325        C  0.45826914  0.23361989  0.43193361     0.07800
C326        C  0.49129065  0.20063678  0.92580984    -0.02300
Br327      Br  0.48169327  0.14379852  0.91655971    -0.00900
Br328      Br  0.07911869  0.15837352  0.94798459    -0.01000
Br329      Br  0.41592167  0.32402124  0.44655964    -0.00900
Br330      Br  0.01322587  0.34335821  0.45393410    -0.00900
C331        C  0.25776733  0.30344605  0.57890371    -0.02000
C332        C  0.28041939  0.26050715  0.58680407     0.07700
C333        C  0.27751398  0.24524624  0.12990419    -0.02100
C334        C  0.24452313  0.26484087  0.15803284    -0.02100
C335        C  0.21620111  0.29865333  0.64109882     0.07800
C336        C  0.22722140  0.32383784  0.60898675    -0.02300
Br337      Br  0.18312010  0.37315292  0.58733267    -0.00900
Br338      Br  0.26154261  0.33385670  0.52483653    -0.01000
Br339      Br  0.23546432  0.23933097  0.21297532    -0.00900
Br340      Br  0.31662017  0.19261450  0.14838315    -0.00900
C341        C  0.09023935  0.47197855  0.71885459    -0.02000
C342        C  0.57277980  0.43506308  0.68007794     0.07700
C343        C  0.54654807  0.44803937  0.63869620    -0.02100
C344        C  0.52547543  0.99170137  0.63490317    -0.02100
C345        C  0.02922458  0.00532158  0.67508670     0.07800
C346        C  0.07114239  0.98721769  0.70054351    -0.02300
Br347      Br  0.09166783  0.00753225  0.76234018    -0.00900
Br348      Br  0.11274287  0.44988641  0.77946614    -0.01000
Br349      Br  0.47727247  0.01997322  0.59263028    -0.00900
Br350      Br  0.54220406  0.40631152  0.58927676    -0.00900
C351        C  0.02480127  0.25535309  0.83010610    -0.02000
C352        C  0.48980813  0.29035103  0.83519993     0.07700
C353        C  0.44669100  0.28489086  0.82382779    -0.02100
C354        C  0.43988455  0.24411113  0.81623943    -0.02100
C355        C  0.97426522  0.21074604  0.80464417     0.07800
C356        C  0.01797764  0.21548074  0.81880892    -0.02300
Br357      Br  0.07075920  0.17010530  0.81692543    -0.00900
Br358      Br  0.08466596  0.26284501  0.84697492    -0.01000
Br359      Br  0.38073683  0.23498929  0.80215492    -0.00900
Br360      Br  0.40031948  0.33264258  0.80553501    -0.00900
C361        C  0.36013609  0.60989285  0.31012310     0.02900
C362        C  0.33825223  0.57647010  0.31499559    -0.13200
C363        C  0.31135541  0.57765258  0.35184666     0.00400
C364        C  0.30774935  0.61234436  0.38482530    -0.11700
C365        C  0.32975910  0.64542014  0.38244381     0.02900
C366        C  0.35462122  0.64409189  0.34411356    -0.11100
H367        H  0.34285398  0.54931156  0.29096650     0.08500
H368        H  0.28805529  0.61330717  0.41314078     0.06100
H369        H  0.37118854  0.66956145  0.34150674     0.05900
C370        C  0.37543105  0.84768808  0.04829513     0.02900
C371        C  0.34710635  0.88911948  0.04382827    -0.13200
C372        C  0.35196635  0.92311594  0.07643025     0.00400
C373        C  0.38839113  0.91599349  0.11075059    -0.11700
C374        C  0.41747667  0.87614799  0.11643150     0.02900
C375        C  0.41096174  0.84224553  0.08488729    -0.11100
H376        H  0.31997604  0.89449969  0.01641972     0.08500
H377        H  0.39274013  0.94157134  0.13552919     0.06100
H378        H  0.43246055  0.81130859  0.08999735     0.05900
C379        C  0.16067875  0.90742996  0.40029770     0.02900
C380        C  0.12746869  0.90761777  0.36199089    -0.13200
C381        C  0.09988470  0.87816174  0.35540290     0.00400
C382        C  0.10122630  0.85242775  0.39415895    -0.11700
C383        C  0.12999450  0.85345880  0.43656970     0.02900
C384        C  0.16129755  0.88002189  0.43773126    -0.11100
H385        H  0.12379416  0.93116837  0.33666930     0.08500
H386        H  0.07891570  0.83188816  0.39229451     0.06100
H387        H  0.18485255  0.88050467  0.46805236     0.05900
C388        C  0.14111972  0.59560837  0.13110121     0.02900
C389        C  0.10453413  0.59555722  0.15616571    -0.13200
C390        C  0.06480236  0.62850306  0.15233957     0.00400
C391        C  0.06444499  0.66410601  0.12479246    -0.11700
C392        C  0.10079444  0.66592526  0.09973087     0.02900
C393        C  0.13673250  0.62992983  0.10168247    -0.11700
H394        H  0.10619054  0.56880073  0.17718866     0.08500
H395        H  0.03592034  0.69021486  0.12280594     0.06100
H396        H  0.16236575  0.62829516  0.07974938     0.05900
O397        O  0.98453706  0.63608644  0.16209967    -0.72000
O398        O  0.38881618  0.61170269  0.23256696    -0.72200
O399        O  0.42245329  0.68015618  0.22298327    -0.72000
O400        O  0.45309102  0.56799470  0.17255875    -0.72000
O401        O  0.98964743  0.54674151  0.23637065    -0.72000
O402        O  0.97865767  0.65695496  0.27420404    -0.72000
O403        O  0.43521845  0.60268356  0.29496751    -0.72000
O404        O  0.03179494  0.60901009  0.21823549    -0.72200
V405        V  0.43631639  0.62375221  0.19943288     1.35200
V406        V  0.98427956  0.60287827  0.25359222     1.35200
C407        C  0.02514839  0.62503007  0.17840635     0.77300
C408        C  0.39572465  0.60690081  0.27699842     0.77300
C409        C  0.94983968  0.68528999  0.25444733     0.77200
C410        C  0.98845226  0.54015570  0.19363235     0.77200
O411        O  0.15454592  0.78681058  0.47839894    -0.72000
O412        O  0.13014662  0.69788256  0.03981887    -0.72200
O413        O  0.10125523  0.73353092  0.46192315    -0.72000
O414        O  0.18215453  0.75217303  0.56378498    -0.72000
O415        O  0.12991662  0.80225538  0.08629403    -0.72000
O416        O  0.04996780  0.77308622  0.99266335    -0.72000
O417        O  0.08224703  0.74198130  0.07647080    -0.72000
O418        O  0.09920240  0.83044007  0.50457994    -0.72200
V419        V  0.14120606  0.74298279  0.51345836     1.35200
V420        V  0.09122906  0.78655542  0.03764442     1.35200
C421        C  0.12872563  0.82315714  0.47606442     0.77300
C422        C  0.10358460  0.70371977  0.07065640     0.77300
C423        C  0.06189146  0.75252977  0.95676399     0.77200
C424        C  0.16917468  0.78218729  0.08939119     0.77200
O425        O  0.28064400  0.97161050  0.05475973    -0.72000
O426        O  0.18889028  0.53567301  0.09430107    -0.72200
O427        O  0.23353727  0.05626601  0.05398022    -0.72000
O428        O  0.22164921  0.95371151  0.10140997    -0.72000
O429        O  0.25403973  0.46850599  0.17908148    -0.72000
O430        O  0.29243292  0.55698567  0.13424986    -0.72000
O431        O  0.21494026  0.55325485  0.16365132    -0.72000
O432        O  0.31682063  0.98469611  0.12073676    -0.72200
V433        V  0.22798883  0.00527358  0.07805895     1.35200
V434        V  0.27087670  0.51251969  0.15464875     1.35200
C435        C  0.31562924  0.96242665  0.08292292     0.77300
C436        C  0.18290724  0.55927039  0.13065648     0.77300
C437        C  0.25732499  0.07966397  0.07615694     0.77200
C438        C  0.24036156  0.94503269  0.14184547     0.77200
O439        O  0.07314102  0.84408034  0.28044059    -0.72000
O440        O  0.48750257  0.84368031  0.16123179    -0.72200
O441        O  0.06587313  0.87104842  0.19036044    -0.72000
O442        O  0.99963366  0.81487664  0.24937036    -0.72000
O443        O  0.46744145  0.87544385  0.28269932    -0.72000
O444        O  0.51581632  0.92834152  0.19593503    -0.72000
O445        O  0.44547142  0.89788947  0.19252963    -0.72000
O446        O  0.03742354  0.90735225  0.29684442    -0.72200
V447        V  0.03267545  0.84391285  0.22229550     1.35200
V448        V  0.49258659  0.90192677  0.23952359     1.35200
C449        C  0.06879013  0.87621171  0.30915530     0.77300
C450        C  0.45154627  0.87153055  0.15844736     0.77300
C451        C  0.54656204  0.90744540  0.17353176     0.77200
C452        C  0.47453981  0.83576164  0.27793304     0.77200
O453        O  0.21874757  0.54700357  0.43383990    -0.72000
O454        O  0.21132288  0.48262218  0.32245104    -0.72200
O455        O  0.17899847  0.97214967  0.37830177    -0.72000
O456        O  0.24570890  0.55009969  0.35307963    -0.72000
O457        O  0.30756791  0.50810661  0.37731927    -0.72000
O458        O  0.23459801  0.92676229  0.41052246    -0.72000
O459        O  0.27514759  0.93376315  0.33403200    -0.72000
O460        O  0.27585893  0.99020688  0.45086116    -0.72200
V461        V  0.21521310  0.51310474  0.37892153     1.35200
V462        V  0.27323295  0.96195764  0.39254998     1.35200
C463        C  0.25499551  0.53913984  0.45941858     0.77300
C464        C  0.24993596  0.95172642  0.30045894     0.77300
C465        C  0.19297588  0.93682263  0.39784639     0.77200
C466        C  0.28754126  0.54299025  0.35907468     0.77200
O467        O  0.35554890  0.67467429  0.45852158    -0.72000
O468        O  0.38518490  0.77150254  0.02762291    -0.72200
O469        O  0.32724564  0.72526809  0.03472543    -0.72000
O470        O  0.41017859  0.72235816  0.95297802    -0.72000
O471        O  0.36388090  0.76456793  0.40902500    -0.72000
O472        O  0.28180539  0.76710331  0.49371017    -0.72000
O473        O  0.33658062  0.81390187  0.98280477    -0.72000
O474        O  0.30700525  0.71775614  0.41417685    -0.72200
V475        V  0.36764047  0.72395943  0.99183030     1.35200
V476        V  0.32357270  0.76451375  0.45147049     1.35200
C477        C  0.32957109  0.68032920  0.42068994     0.77300
C478        C  0.36571066  0.80948844  0.01804687     0.77300
C479        C  0.29235017  0.75338099  0.02958875     0.77200
C480        C  0.40122732  0.74456720  0.91766830     0.77200
C481        C  0.24468987  0.60794279  0.50696103    -0.02000
C482        C  0.26748589  0.06232733  0.47493398     0.07700
C483        C  0.31188508  0.05866599  0.49629490    -0.02100
C484        C  0.31005690  0.09193870  0.03493997    -0.02100
C485        C  0.27059653  0.11275418  0.05163952     0.07800
C486        C  0.26362038  0.62324332  0.04689069    -0.02300
Br487      Br  0.22889964  0.66728549  0.08060420    -0.00900
Br488      Br  0.18595774  0.63130880  0.47923296    -0.01000
Br489      Br  0.36410616  0.09101649  0.07409047    -0.00900
Br490      Br  0.36065866  0.01469585  0.48004806    -0.00900
C491        C  0.19600968  0.41279250  0.20067097    -0.02000
C492        C  0.24396982  0.90425035  0.16368764     0.07700
C493        C  0.28512434  0.89237510  0.19088652    -0.02100
C494        C  0.28971597  0.91309851  0.23514081    -0.02100
C495        C  0.25044458  0.93296614  0.25424936     0.07800
C496        C  0.20088574  0.44109314  0.23801174    -0.02300
Br497      Br  0.17776460  0.50078025  0.22755727    -0.00900
Br498      Br  0.18000453  0.36319849  0.21959283    -0.01000
Br499      Br  0.34112381  0.93637339  0.25239419    -0.00900
Br500      Br  0.33360284  0.85616867  0.16512884    -0.00900
C501        C  0.02097037  0.71263869  0.40589297    -0.02000
C502        C  0.02818040  0.75261935  0.91876865     0.07700
C503        C  0.99533726  0.79044840  0.91518512    -0.02100
C504        C  0.44677268  0.79154656  0.91006309    -0.02100
C505        C  0.43768051  0.75157800  0.89727216     0.07800
C506        C  0.47241161  0.71397190  0.39081399    -0.02300
Br507      Br  0.46017843  0.65829244  0.38245018    -0.00900
Br508      Br  0.06860991  0.66308241  0.40647453    -0.01000
Br509      Br  0.40092115  0.84132756  0.92064254    -0.00900
Br510      Br  0.00867267  0.84530351  0.93193563    -0.00900
C511        C  0.24582306  0.81631406  0.06773032    -0.02000
C512        C  0.27114233  0.77402501  0.07018616     0.07700
C513        C  0.27520016  0.74862305  0.61501063    -0.02100
C514        C  0.24019718  0.76180129  0.64242617    -0.02100
C515        C  0.20228122  0.79765481  0.12074475     0.07800
C516        C  0.21264152  0.82955023  0.09702599    -0.02300
Br517      Br  0.16744939  0.88037895  0.08391301    -0.00900
Br518      Br  0.25249443  0.85505358  0.02359712    -0.01000
Br519      Br  0.23359672  0.73040599  0.69411949    -0.00900
Br520      Br  0.32232266  0.70092509  0.63273477    -0.00900
C521        C  0.08878983  0.95811465  0.19504876    -0.02000
C522        C  0.57035918  0.93036509  0.14838834     0.07700
C523        C  0.54340615  0.95593820  0.11427292    -0.02100
C524        C  0.51413558  0.48536880  0.14154745    -0.02100
C525        C  0.02856748  0.51318267  0.17792728     0.07800
C526        C  0.06705723  0.50539477  0.21133397    -0.02300
Br527      Br  0.07910247  0.54211786  0.26592337    -0.00900
Br528      Br  0.12191626  0.92617101  0.24719814    -0.01000
Br529      Br  0.46457562  0.49765527  0.09467644    -0.00900
Br530      Br  0.52571167  0.92946243  0.05612630    -0.00900
C531        C  0.99847680  0.76802031  0.31480686    -0.02000
C532        C  0.46241494  0.80813729  0.30844497     0.07700
C533        C  0.41919514  0.80174656  0.29808780    -0.02100
C534        C  0.41273239  0.76207319  0.28129786    -0.02100
C535        C  0.95157433  0.72699319  0.27117310     0.07800
C536        C  0.99416202  0.73318070  0.28655490    -0.02300
Br537      Br  0.04654627  0.69834222  0.26234032    -0.00900
Br538      Br  0.05816492  0.77399736  0.33379867    -0.01000
Br539      Br  0.35422584  0.75145823  0.26751806    -0.00900
Br540      Br  0.36963949  0.84702646  0.30319869    -0.00900
C541        C  0.35984788  0.61035292  0.80735629     0.02900
C542        C  0.33866283  0.57639367  0.81200473    -0.13200
C543        C  0.31170296  0.57697388  0.84863963     0.00400
C544        C  0.30759434  0.61164075  0.88181895    -0.11700
C545        C  0.32889775  0.64534507  0.87954107     0.02900
C546        C  0.35366087  0.64452481  0.84128307    -0.11100
H547        H  0.34378678  0.54932730  0.78788768     0.08500
H548        H  0.28794137  0.61217338  0.91006849     0.06100
H549        H  0.36965511  0.67041139  0.83869205     0.05900
C550        C  0.38040116  0.84670317  0.54954924     0.02900
C551        C  0.35323190  0.88856859  0.54421398    -0.13200
C552        C  0.36016021  0.92300242  0.57528100     0.00400
C553        C  0.39697293  0.91568549  0.60884801    -0.11700
C554        C  0.42354715  0.87518562  0.61675096     0.02900
C555        C  0.41571147  0.84088084  0.58646233    -0.11100
H556        H  0.32533580  0.89393459  0.51761234     0.08500
H557        H  0.40299125  0.94171957  0.63220535     0.06100
H558        H  0.43564639  0.80948296  0.59304761     0.05900
C559        C  0.16303525  0.90660508  0.89189301     0.02900
C560        C  0.13286410  0.90423193  0.85116849    -0.13200
C561        C  0.10355841  0.87636049  0.84579563     0.00400
C562        C  0.10237252  0.85300808  0.88590975    -0.11700
C563        C  0.13016446  0.85438901  0.92896445     0.02900
C564        C  0.16112794  0.88130278  0.93046894    -0.11100
H565        H  0.13275139  0.92435234  0.82293513     0.08500
H566        H  0.07869752  0.83412998  0.88454656     0.06100
H567        H  0.18240881  0.88394886  0.96201409     0.05900
C568        C  0.14110115  0.59378424  0.63523646     0.02900
C569        C  0.10469919  0.59415649  0.66111644    -0.13200
C570        C  0.06488939  0.62736250  0.65765898     0.00400
C571        C  0.06470895  0.66298775  0.63038980    -0.11700
C572        C  0.10072461  0.66446689  0.60482623     0.02900
C573        C  0.13605968  0.62797689  0.60552846    -0.11700
H574        H  0.10649021  0.56765088  0.68244710     0.08500
H575        H  0.03650439  0.68942067  0.62896900     0.06100
H576        H  0.16076680  0.62587151  0.58236614     0.05900
O577        O  0.98423554  0.63671023  0.66756914    -0.72000
O578        O  0.38837231  0.61224411  0.72985317    -0.72200
O579        O  0.42060856  0.68162417  0.71978434    -0.72000
O580        O  0.45308943  0.56906155  0.67036363    -0.72000
O581        O  0.98598518  0.54729055  0.74072932    -0.72000
O582        O  0.97875034  0.65672231  0.78036493    -0.72000
O583        O  0.43461510  0.60513315  0.79242832    -0.72000
O584        O  0.03091575  0.60845490  0.72340621    -0.72200
V585        V  0.43535137  0.62504723  0.69658014     1.35200
V586        V  0.98287651  0.60305883  0.75887420     1.35200
C587        C  0.02480901  0.62462913  0.68371194     0.77300
C588        C  0.39530229  0.60811677  0.77436445     0.77300
C589        C  0.95080494  0.68567323  0.76052650     0.77200
C590        C  0.98653648  0.54269039  0.69803213     0.77200
O591        O  0.15435898  0.78794931  0.97197187    -0.72000
O592        O  0.12997306  0.69672898  0.54535788    -0.72200
O593        O  0.10164558  0.73400633  0.95554832    -0.72000
O594        O  0.18129062  0.75419814  0.05839438    -0.72000
O595        O  0.13176066  0.80060348  0.59275034    -0.72000
O596        O  0.04992554  0.77266341  0.49945641    -0.72000
O597        O  0.08294407  0.74080355  0.58303108    -0.72000
O598        O  0.09857646  0.83149644  0.99727242    -0.72200
V599        V  0.14110896  0.74415788  0.00749513     1.35200
V600        V  0.09196963  0.78548052  0.54448154     1.35200
C601        C  0.12834419  0.82422473  0.96892048     0.77300
C602        C  0.10371926  0.70248217  0.57642382     0.77300
C603        C  0.06155748  0.75195337  0.46345382     0.77200
C604        C  0.17093585  0.78017687  0.59499578     0.77200
O605        O  0.28962247  0.97299079  0.55565659    -0.72000
O606        O  0.18921816  0.53460666  0.59698186    -0.72200
O607        O  0.24221027  0.05711830  0.55791827    -0.72000
O608        O  0.23447963  0.95313748  0.60528169    -0.72000
O609        O  0.25613478  0.46525200  0.68119006    -0.72000
O610        O  0.29253577  0.55524266  0.63606183    -0.72000
O611        O  0.21572955  0.55079588  0.66657655    -0.72000
O612        O  0.32796943  0.98452258  0.62080951    -0.72200
V613        V  0.23832611  0.00565027  0.58203046     1.35200
V614        V  0.27182588  0.51017439  0.65649309     1.35200
C615        C  0.32519372  0.96292641  0.58267432     0.77300
C616        C  0.18328546  0.55743499  0.63391288     0.77300
C617        C  0.26817189  0.07945555  0.57794992     0.77200
C618        C  0.25508954  0.94428737  0.64493262     0.77200
O619        O  0.07591557  0.84125433  0.77179840    -0.72000
O620        O  0.49063437  0.84269063  0.66596554    -0.72200
O621        O  0.06671251  0.86546057  0.68036231    -0.72000
O622        O  0.00144255  0.81270049  0.74486299    -0.72000
O623        O  0.46280704  0.87729698  0.78524969    -0.72000
O624        O  0.51827772  0.92712648  0.70211748    -0.72000
O625        O  0.44706280  0.89766306  0.69405772    -0.72000
O626        O  0.04172422  0.90541142  0.78673943    -0.72200
V627        V  0.03399308  0.84013965  0.71492421     1.35200
V628        V  0.49160644  0.90226241  0.74381458     1.35200
C629        C  0.07259727  0.87407398  0.79953155     0.77300
C630        C  0.45506977  0.87078333  0.66068576     0.77300
C631        C  0.55049156  0.90544603  0.68239538     0.77200
C632        C  0.46843967  0.83768975  0.78042516     0.77200
O633        O  0.22325501  0.54499927  0.93296464    -0.72000
O634        O  0.20931434  0.48117863  0.82258946    -0.72200
O635        O  0.18170541  0.97149841  0.87090560    -0.72000
O636        O  0.24650184  0.54867017  0.85069660    -0.72000
O637        O  0.30899179  0.50631783  0.87210700    -0.72000
O638        O  0.23590525  0.92762567  0.90756957    -0.72000
O639        O  0.28230660  0.93460653  0.83579903    -0.72000
O640        O  0.27275985  0.99259709  0.95093626    -0.72200
V641        V  0.21696045  0.51175362  0.87825413     1.35200
V642        V  0.27521174  0.96357335  0.89320743     1.35200
C643        C  0.26022997  0.53703239  0.95707239     0.77300
C644        C  0.25945107  0.95178153  0.80050409     0.77300
C645        C  0.19500217  0.93659722  0.89141815     0.77200
C646        C  0.28837764  0.54170006  0.85538744     0.77200
O647        O  0.35315852  0.67513358  0.95606228    -0.72000
O648        O  0.38850564  0.77058861  0.52982953    -0.72200
O649        O  0.33062679  0.72434211  0.53796446    -0.72000
O650        O  0.41236635  0.72190311  0.45458594    -0.72000
O651        O  0.36281388  0.76580884  0.90718572    -0.72000
O652        O  0.27878434  0.76709673  0.98923287    -0.72000
O653        O  0.33989328  0.81321838  0.48522529    -0.72000
O654        O  0.30605448  0.71807549  0.91025526    -0.72200
V655        V  0.37042075  0.72328343  0.49427179     1.35200
V656        V  0.32145189  0.76503643  0.94824530     1.35200
C657        C  0.32807629  0.68056991  0.91760248     0.77300
C658        C  0.36947550  0.80861940  0.52006882     0.77300
C659        C  0.29554908  0.75236567  0.53360053     0.77200
C660        C  0.40247977  0.74346611  0.41877153     0.77200
C661        C  0.24877754  0.60679732  0.00302466    -0.02000
C662        C  0.26234418  0.06496675  0.97372239     0.07700
C663        C  0.30563850  0.06186650  0.99810832    -0.02100
C664        C  0.31892155  0.08911882  0.53185866    -0.02100
C665        C  0.28124773  0.11122127  0.55122465     0.07800
C666        C  0.26083466  0.62300138  0.55107000    -0.02300
Br667      Br  0.22695390  0.66482215  0.58802375    -0.00900
Br668      Br  0.19062692  0.62998956  0.97335887    -0.01000
Br669      Br  0.37572458  0.09167047  0.56311605    -0.00900
Br670      Br  0.35588847  0.01804690  0.98549567    -0.00900
C671        C  0.18994837  0.41605791  0.69688558    -0.02000
C672        C  0.26263067  0.90217336  0.66562817     0.07700
C673        C  0.30350585  0.89384169  0.69386538    -0.02100
C674        C  0.30483230  0.91438980  0.73846271    -0.02100
C675        C  0.26367200  0.93230146  0.75523026     0.07800
C676        C  0.19580685  0.44237769  0.73590708    -0.02300
Br677      Br  0.17738537  0.50294348  0.72932973    -0.00900
Br678      Br  0.16850700  0.36779818  0.71088207    -0.01000
Br679      Br  0.35715702  0.93335716  0.76396494    -0.00900
Br680      Br  0.35101069  0.85034425  0.67636963    -0.00900
C681        C  0.01924817  0.71387927  0.90167056    -0.02000
C682        C  0.02793199  0.75143962  0.42540230     0.07700
C683        C  0.99480601  0.78883478  0.42027329    -0.02100
C684        C  0.44683771  0.79038995  0.40586368    -0.02100
C685        C  0.43804808  0.74987517  0.39627292     0.07800
C686        C  0.47203290  0.71557233  0.89226410    -0.02300
Br687      Br  0.45885958  0.66074758  0.87860053    -0.00900
Br688      Br  0.06610013  0.66395383  0.89903535    -0.01000
Br689      Br  0.40096647  0.83997219  0.41726366    -0.00900
Br690      Br  0.00650514  0.84400385  0.43915616    -0.00900
C691        C  0.24905287  0.81399953  0.57366933    -0.02000
C692        C  0.27380818  0.77146856  0.57455148     0.07700
C693        C  0.27308028  0.75259534  0.11176531    -0.02100
C694        C  0.23778549  0.76604903  0.13863379    -0.02100
C695        C  0.20504944  0.79448871  0.62601061     0.07800
C696        C  0.21593380  0.82664158  0.60314587    -0.02300
Br697      Br  0.17249148  0.87900891  0.59327660    -0.00900
Br698      Br  0.25750252  0.85442753  0.53225442    -0.01000
Br699      Br  0.23132386  0.73564383  0.19112554    -0.00900
Br700      Br  0.32110202  0.70634632  0.13158954    -0.00900
C701        C  0.09522847  0.94812927  0.68433546    -0.02000
C702        C  0.57574034  0.92743826  0.65817232     0.07700
C703        C  0.54998029  0.95159056  0.62228735    -0.02100
C704        C  0.51439914  0.48570332  0.64118712    -0.02100
C705        C  0.02997244  0.52339307  0.68328459     0.07800
C706        C  0.06600989  0.51306366  0.71924883    -0.02300
Br707      Br  0.07516579  0.54580870  0.77801945    -0.00900
Br708      Br  0.13341202  0.91067906  0.72926029    -0.01000
Br709      Br  0.46155924  0.49295962  0.59833218    -0.00900
Br710      Br  0.53442460  0.92232838  0.56515008    -0.00900
C711        C  0.00333162  0.76856744  0.81384374    -0.02000
C712        C  0.45428573  0.81065939  0.81069155     0.07700
C713        C  0.41178619  0.80264773  0.79784704    -0.02100
C714        C  0.40762046  0.76303626  0.77831392    -0.02100
C715        C  0.95426288  0.72692131  0.77629604     0.07800
C716        C  0.99748028  0.73230970  0.78936091    -0.02300
Br717      Br  0.04906804  0.69364414  0.76767870    -0.00900
Br718      Br  0.06372618  0.77357635  0.82909348    -0.01000
Br719      Br  0.35034240  0.75013113  0.76143905    -0.00900
Br720      Br  0.35981551  0.84313033  0.80997014    -0.00900
C721        C  0.87163493  0.10324929  0.32435430     0.02900
C722        C  0.84680833  0.07218224  0.32693242    -0.13200
C723        C  0.81822107  0.07495266  0.36188976     0.00400
C724        C  0.81484562  0.10990421  0.39489618    -0.11700
C725        C  0.84072554  0.14053421  0.39550577     0.02900
C726        C  0.86832025  0.13686516  0.35913485    -0.11100
H727        H  0.84996966  0.04566544  0.30197869     0.08500
H728        H  0.79196119  0.11355117  0.42031771     0.06100
H729        H  0.88791565  0.16023765  0.35812899     0.05900
C730        C  0.89265978  0.33259490  0.07512066     0.02900
C731        C  0.86178315  0.37275859  0.07343149    -0.13200
C732        C  0.86471127  0.40635465  0.10741371     0.00400
C733        C  0.90108305  0.40001263  0.14179918    -0.11700
C734        C  0.93390794  0.36197660  0.14463136     0.02900
C735        C  0.92911541  0.32825952  0.11129559    -0.11100
H736        H  0.83428519  0.37754855  0.04649789     0.08500
H737        H  0.90354802  0.42543770  0.16738746     0.06100
H738        H  0.95319763  0.29854608  0.11404580     0.05900
C739        C  0.67087229  0.40817585  0.41997759     0.02900
C740        C  0.64733147  0.39726509  0.37778810    -0.13200
C741        C  0.61623850  0.37138718  0.37500010     0.00400
C742        C  0.61265375  0.35210311  0.41678534    -0.11700
C743        C  0.63864156  0.35736545  0.45994592     0.02900
C744        C  0.66640249  0.38752955  0.46107708    -0.11100
H745        H  0.65460987  0.40903334  0.34679053     0.08500
H746        H  0.58936436  0.33249372  0.41591586     0.06100
H747        H  0.68364479  0.39579616  0.49346308     0.05900
C748        C  0.65121602  0.09708752  0.15141227     0.02900
C749        C  0.61633966  0.09378749  0.17666135    -0.13200
C750        C  0.57873743  0.12760289  0.17998269     0.00400
C751        C  0.57719255  0.16590764  0.15612183    -0.11700
C752        C  0.61246974  0.17001933  0.13036327     0.02900
C753        C  0.64861181  0.13497190  0.12926661    -0.11700
H754        H  0.61783490  0.06430658  0.19278802     0.08500
H755        H  0.54877668  0.19192314  0.15727202     0.06100
H756        H  0.67559505  0.13672194  0.10990169     0.05900
O757        O  0.50102287  0.13629628  0.19523925    -0.72000
O758        O  0.89707236  0.10731781  0.24705094    -0.72200
O759        O  0.93404747  0.17419095  0.24858753    -0.72000
O760        O  0.95639869  0.06989539  0.17828010    -0.72000
O761        O  0.50344297  0.03516897  0.24492138    -0.72000
O762        O  0.50364607  0.13550777  0.30946061    -0.72000
O763        O  0.94621328  0.08883796  0.30598058    -0.72000
O764        O  0.55005451  0.09607960  0.24161958    -0.72200
V765        V  0.94302324  0.12187528  0.21494353     1.35200
V766        V  0.50330346  0.08651565  0.27593035     1.35200
C767        C  0.54167950  0.12047247  0.20706206     0.77300
C768        C  0.90593328  0.09847265  0.29032119     0.77300
C769        C  0.47575172  0.16798400  0.29765956     0.77200
C770        C  0.49729424  0.03718997  0.20171411     0.77200
O771        O  0.66527790  0.29276067  0.50500652    -0.72000
O772        O  0.63875476  0.20130788  0.06881595    -0.72200
O773        O  0.61399254  0.23766245  0.49069092    -0.72000
O774        O  0.69358537  0.25877070  0.59101016    -0.72000
O775        O  0.64521859  0.30590175  0.11420226    -0.72000
O776        O  0.55961625  0.27605177  0.02557517    -0.72000
O777        O  0.59539731  0.24656338  0.10956514    -0.72000
O778        O  0.60759461  0.33505563  0.52814435    -0.72200
V779        V  0.65310563  0.24900641  0.54123772     1.35200
V780        V  0.60291666  0.29011953  0.06865323     1.35200
C781        C  0.63779332  0.32812522  0.50052351     0.77300
C782        C  0.61448983  0.20794454  0.10179007     0.77300
C783        C  0.57088385  0.25434713  0.98988554     0.77200
C784        C  0.68397524  0.28404572  0.11548813     0.77200
O785        O  0.79565747  0.45401334  0.07925332    -0.72000
O786        O  0.68679903  0.03628248  0.10748735    -0.72200
O787        O  0.76556599  0.53875123  0.06752418    -0.72000
O788        O  0.72251321  0.45138644  0.11258462    -0.72000
O789        O  0.77246448  0.97407501  0.17091068    -0.72000
O790        O  0.78908736  0.06956224  0.11623347    -0.72000
O791        O  0.72740271  0.05801744  0.16606457    -0.72000
O792        O  0.82558711  0.47108149  0.14716846    -0.72200
V793        V  0.74343210  0.49592650  0.09033977     1.35200
V794        V  0.77867375  0.02162235  0.14255549     1.35200
C795        C  0.82771617  0.44604751  0.11098810     0.77300
C796        C  0.68954918  0.06103554  0.14286586     0.77300
C797        C  0.78471717  0.56311501  0.09452671     0.77200
C798        C  0.73638215  0.44091224  0.15400719     0.77200
O799        O  0.59076053  0.33771588  0.29964027    -0.72000
O800        O  0.00870092  0.33467320  0.18593582    -0.72200
O801        O  0.57015409  0.36630560  0.21017027    -0.72000
O802        O  0.52272490  0.30033317  0.27936197    -0.72000
O803        O  0.99007566  0.36095772  0.30680972    -0.72000
O804        O  0.03093591  0.42336325  0.22575787    -0.72000
O805        O  0.96469578  0.38608773  0.21899036    -0.72000
O806        O  0.54926497  0.39634894  0.32245447    -0.72200
V807        V  0.54567119  0.33448506  0.24639418     1.35200
V808        V  0.01143657  0.39155296  0.26630320     1.35200
C809        C  0.58450030  0.36815254  0.33027735     0.77300
C810        C  0.97083914  0.35988233  0.18473983     0.77300
C811        C  0.06251997  0.40662900  0.20261490     0.77200
C812        C  0.00134261  0.32163760  0.30154541     0.77200
O813        O  0.70828009  0.04102815  0.42227136    -0.72000
O814        O  0.72170232  0.98648611  0.30604010    -0.72200
O815        O  0.68069154  0.47808073  0.40227221    -0.72000
O816        O  0.74989177  0.05107491  0.35281799    -0.72000
O817        O  0.80781282  0.00533989  0.38022521    -0.72000
O818        O  0.74111387  0.43180859  0.42046432    -0.72000
O819        O  0.76828369  0.43734155  0.33771760    -0.72000
O820        O  0.78118026  0.49938325  0.45032920    -0.72200
V821        V  0.71461083  0.01234430  0.36467830     1.35200
V822        V  0.77305421  0.46860657  0.39416187     1.35200
C823        C  0.74272281  0.03384906  0.45073467     0.77300
C824        C  0.73379414  0.44779824  0.30994159     0.77300
C825        C  0.69899224  0.44126547  0.41688776     0.77200
C826        C  0.79118747  0.04200019  0.36416290     0.77200
O827        O  0.86435787  0.16956963  0.47314719    -0.72000
O828        O  0.90464905  0.25673655  0.04914766    -0.72200
O829        O  0.84478488  0.21233791  0.05365421    -0.72000
O830        O  0.92967193  0.20877346  0.97275513    -0.72000
O831        O  0.87927573  0.25889670  0.42655649    -0.72000
O832        O  0.79211412  0.26271041  0.50413993    -0.72000
O833        O  0.85593478  0.29998578  0.00564842    -0.72000
O834        O  0.82034411  0.21385352  0.42634420    -0.72200
V835        V  0.88653677  0.21013402  0.01136275     1.35200
V836        V  0.83669554  0.25971644  0.46588448     1.35200
C837        C  0.84058942  0.17578946  0.43388707     0.77300
C838        C  0.88463691  0.29495727  0.04154956     0.77300
C839        C  0.80930682  0.23961721  0.04601508     0.77200
C840        C  0.92063225  0.23134038  0.93751661     0.77200
C841        C  0.73236744  0.10847570  0.48165594    -0.02000
C842        C  0.77761306  0.56979537  0.47964023     0.07700
C843        C  0.82269170  0.56048599  0.49865735    -0.02100
C844        C  0.83156850  0.58377018  0.04711837    -0.02100
C845        C  0.79805853  0.59865526  0.07519372     0.07800
C846        C  0.74540583  0.13082595  0.01652229    -0.02300
Br847      Br  0.72742673  0.19037307  0.01322203    -0.00900
Br848      Br  0.68562734  0.13326587  0.43545249    -0.01000
Br849      Br  0.89085120  0.58361610  0.07174677    -0.00900
Br850      Br  0.86783427  0.52241795  0.46786034    -0.00900
C851        C  0.72947943  0.90045148  0.19198900    -0.02000
C852        C  0.72720734  0.40423843  0.17441223     0.07700
C853        C  0.76171204  0.38073555  0.20509620    -0.02100
C854        C  0.75869282  0.38815586  0.25340640    -0.02100
C855        C  0.72667872  0.42378780  0.26669099     0.07800
C856        C  0.72239791  0.93203867  0.22663126    -0.02300
Br857      Br  0.68418991  0.98518797  0.20889266    -0.00900
Br858      Br  0.73355128  0.84621395  0.21774818    -0.01000
Br859      Br  0.79188500  0.34908223  0.29836154    -0.00900
Br860      Br  0.81528470  0.34979633  0.18294338    -0.00900
C861        C  0.53562991  0.20470731  0.44852014    -0.02000
C862        C  0.53740335  0.24822602  0.95452867     0.07700
C863        C  0.50327020  0.28370662  0.94396317    -0.02100
C864        C  0.96200107  0.27747069  0.91417078    -0.02100
C865        C  0.95555897  0.23586618  0.91283826     0.07800
C866        C  0.98863695  0.20535401  0.41689332    -0.02300
Br867      Br  0.97703995  0.14935971  0.40606230    -0.00900
Br868      Br  0.58073879  0.15649895  0.46952074    -0.01000
Br869      Br  0.91333534  0.32680715  0.91062429    -0.00900
Br870      Br  0.51225531  0.34076431  0.95535639    -0.00900
C871        C  0.76196986  0.30616794  0.07590632    -0.02000
C872        C  0.78620101  0.26377817  0.08382562     0.07700
C873        C  0.78555222  0.25697915  0.62862629    -0.02100
C874        C  0.75542191  0.27773194  0.65929044    -0.02100
C875        C  0.72123377  0.29965086  0.13830107     0.07800
C876        C  0.73075141  0.32530061  0.10567507    -0.02300
Br877      Br  0.68509341  0.37340427  0.08378682    -0.00900
Br878      Br  0.76518706  0.33755073  0.02237876    -0.01000
Br879      Br  0.75252637  0.25587648  0.71854888    -0.00900
Br880      Br  0.82540793  0.20457871  0.64655658    -0.00900
C881        C  0.58283742  0.46223344  0.21386299    -0.02000
C882        C  0.08166693  0.43461463  0.17957007     0.07700
C883        C  0.05785182  0.44809015  0.13697539    -0.02100
C884        C  0.01721559  0.99486114  0.13096838    -0.02100
C885        C  0.53066420  0.00947138  0.17546943     0.07800
C886        C  0.57210314  0.98947130  0.20045310    -0.02300
Br887      Br  0.59387879  0.00800954  0.26264271    -0.00900
Br888      Br  0.60890587  0.44373842  0.27534169    -0.01000
Br889      Br  0.97065883  0.01935269  0.08493815    -0.00900
Br890      Br  0.05278690  0.40647046  0.08763412    -0.00900
C891        C  0.52684135  0.25319394  0.35050289    -0.02000
C892        C  0.98636032  0.29372889  0.32734285     0.07700
C893        C  0.94247399  0.29120390  0.31413031    -0.02100
C894        C  0.93283709  0.25154950  0.30533304    -0.02100
C895        C  0.47936640  0.20646503  0.32222838     0.07800
C896        C  0.52219803  0.21271637  0.33782064    -0.02300
Br897      Br  0.57625807  0.16883775  0.33626205    -0.00900
Br898      Br  0.58578937  0.26310892  0.36411938    -0.01000
Br899      Br  0.87248019  0.24627621  0.29067933    -0.00900
Br900      Br  0.89939157  0.34126723  0.29499259    -0.00900
C901        C  0.87929154  0.09522007  0.82519766     0.02900
C902        C  0.85417293  0.06427285  0.82756506    -0.13200
C903        C  0.82519501  0.06731811  0.86228278     0.00400
C904        C  0.82214905  0.10213188  0.89541337    -0.11700
C905        C  0.84834459  0.13248214  0.89630944     0.02900
C906        C  0.87576968  0.12892874  0.85984177    -0.11100
H907        H  0.85724550  0.03780680  0.80255414     0.08500
H908        H  0.79904904  0.10603764  0.92058865     0.06100
H909        H  0.89500538  0.15253444  0.85857620     0.05900
C910        C  0.89044969  0.33948563  0.57178399     0.02900
C911        C  0.86074880  0.38014839  0.56922747    -0.13200
C912        C  0.86342880  0.41324656  0.60369062     0.00400
C913        C  0.89930799  0.40648669  0.63863011    -0.11700
C914        C  0.93159795  0.36816742  0.64155584     0.02900
C915        C  0.92643197  0.33453393  0.60835615    -0.11100
H916        H  0.83424301  0.38571988  0.54128859     0.08500
H917        H  0.90179390  0.43166393  0.66454187     0.06100
H918        H  0.94985421  0.30444020  0.61150424     0.05900
C919        C  0.67091057  0.40960930  0.92138225     0.02900
C920        C  0.64685889  0.40054597  0.87876281    -0.13200
C921        C  0.61677285  0.37359392  0.87431386     0.00400
C922        C  0.61312322  0.35293830  0.91524318    -0.11700
C923        C  0.63942149  0.35665888  0.95865131     0.02900
C924        C  0.66760644  0.38658917  0.96111334    -0.11100
H925        H  0.65286718  0.41470350  0.84873022     0.08500
H926        H  0.58921821  0.33387865  0.91374268     0.06100
H927        H  0.68625550  0.39287191  0.99343205     0.05900
C928        C  0.65276195  0.09688279  0.65271717     0.02900
C929        C  0.61748026  0.09365552  0.67745801    -0.13200
C930        C  0.58043692  0.12793623  0.68158493     0.00400
C931        C  0.57977746  0.16671253  0.65910077    -0.11700
C932        C  0.61542427  0.17098719  0.63401469     0.02900
C933        C  0.65110233  0.13541232  0.63210000    -0.11700
H934        H  0.61811588  0.06383089  0.69241120     0.08500
H935        H  0.55169232  0.19300543  0.66076841     0.06100
H936        H  0.67826350  0.13716745  0.61302084     0.05900
O937        O  0.50227781  0.13499232  0.69423415    -0.72000
O938        O  0.90564596  0.10018750  0.74860739    -0.72200
O939        O  0.94228134  0.16683530  0.75004767    -0.72000
O940        O  0.96527873  0.06280473  0.68137432    -0.72000
O941        O  0.50626552  0.03621113  0.74899784    -0.72000
O942        O  0.50116418  0.13927144  0.80888084    -0.72000
O943        O  0.95422136  0.08033288  0.80763038    -0.72000
O944        O  0.55092062  0.09828259  0.74401742    -0.72200
V945        V  0.95231721  0.11445886  0.71752800     1.35200
V946        V  0.50357311  0.08891324  0.77759002     1.35200
C947        C  0.54290579  0.12089503  0.70800893     0.77300
C948        C  0.91403065  0.09045893  0.79160575     0.77300
C949        C  0.47362894  0.17104858  0.79434361     0.77200
C950        C  0.50049674  0.03616017  0.70563597     0.77200
O951        O  0.66433352  0.29053823  0.00168032    -0.72000
O952        O  0.64280650  0.20331316  0.57408180    -0.72200
O953        O  0.61059216  0.23801826  0.98646999    -0.72000
O954        O  0.69250401  0.25359716  0.08664408    -0.72000
O955        O  0.64416287  0.31016773  0.61679741    -0.72000
O956        O  0.56183755  0.27489636  0.52887464    -0.72000
O957        O  0.59744011  0.24786368  0.61334419    -0.72000
O958        O  0.60816422  0.33403632  0.02642496    -0.72200
V959        V  0.65074729  0.24677531  0.03692313     1.35200
V960        V  0.60361345  0.29147791  0.57154597     1.35200
C961        C  0.63790266  0.32662817  0.99826779     0.77300
C962        C  0.61770781  0.20943562  0.60624639     0.77300
C963        C  0.57397359  0.25302343  0.49365573     0.77200
C964        C  0.68354569  0.29001366  0.61858921     0.77200
O965        O  0.79370996  0.45985984  0.57624347    -0.72000
O966        O  0.68645362  0.03619842  0.60691995    -0.72200
O967        O  0.75959680  0.54373431  0.56322072    -0.72000
O968        O  0.72316736  0.45475243  0.61344124    -0.72000
O969        O  0.77108903  0.97025281  0.66910872    -0.72000
O970        O  0.79029403  0.06558837  0.61638144    -0.72000
O971        O  0.72826684  0.05512365  0.66616234    -0.72000
O972        O  0.82423263  0.47716291  0.64380990    -0.72200
V973        V  0.74084133  0.50005124  0.58870878     1.35200
V974        V  0.77855835  0.01774561  0.64161376     1.35200
C975        C  0.82622668  0.45240724  0.60751271     0.77300
C976        C  0.69021278  0.06005389  0.64293880     0.77300
C977        C  0.78109785  0.56732848  0.58847721     0.77200
C978        C  0.73718139  0.44620065  0.65532869     0.77200
O979        O  0.59292033  0.34006619  0.79824953    -0.72000
O980        O  0.00610238  0.33996743  0.68174036    -0.72200
O981        O  0.57408826  0.36862044  0.70833899    -0.72000
O982        O  0.52531055  0.30304734  0.77633240    -0.72000
O983        O  0.98908252  0.35957109  0.80141758    -0.72000
O984        O  0.02849672  0.42995084  0.72757184    -0.72000
O985        O  0.96293405  0.39106622  0.71624303    -0.72000
O986        O  0.55159581  0.39939226  0.81950690    -0.72200
V987        V  0.54886687  0.33682450  0.74400714     1.35200
V988        V  0.00970281  0.39408670  0.76447435     1.35200
C989        C  0.58618572  0.37069834  0.82861996     0.77300
C990        C  0.96853999  0.36541015  0.68145620     0.77300
C991        C  0.05853846  0.41514765  0.70171439     0.77200
C992        C  0.00302702  0.32060844  0.79486926     0.77200
O993        O  0.71297722  0.03570332  0.92307928    -0.72000
O994        O  0.72509419  0.98278007  0.80626579    -0.72200
O995        O  0.67982325  0.48008511  0.90540599    -0.72000
O996        O  0.75562585  0.04562913  0.85399147    -0.72000
O997        O  0.81280726  0.99795663  0.87925691    -0.72000
O998        O  0.74061151  0.43482115  0.92523945    -0.72000
O999        O  0.76878923  0.44170413  0.84328601    -0.72000
O1000       O  0.77943302  0.50302247  0.95675750    -0.72200
V1001       V  0.71890609  0.00791246  0.86526271     1.35200
V1002       V  0.77234313  0.47247531  0.90014015     1.35200
C1003       C  0.74767406  0.02895728  0.95103707     0.77300
C1004       C  0.73525714  0.45280198  0.81441249     0.77300
C1005       C  0.69847351  0.44337815  0.92004038     0.77200
C1006       C  0.79706390  0.03515460  0.86422231     0.77200
O1007       O  0.87169122  0.16186643  0.97402688    -0.72000
O1008       O  0.89938300  0.26356265  0.54780663    -0.72200
O1009       O  0.83785899  0.22098414  0.55175694    -0.72000
O1010       O  0.92432406  0.21419691  0.47278237    -0.72000
O1011       O  0.88289103  0.25394288  0.92860451    -0.72000
O1012       O  0.79717035  0.25109828  0.00492125    -0.72000
O1013       O  0.85337435  0.30754409  0.50248528    -0.72000
O1014       O  0.82716776  0.20563428  0.92707332    -0.72200
V1015       V  0.88024072  0.21738524  0.51029569     1.35200
V1016       V  0.84132913  0.25174300  0.96768705     1.35200
C1017       C  0.84798371  0.16778350  0.93465359     0.77300
C1018       C  0.88134018  0.30201931  0.53892022     0.77300
C1019       C  0.80398340  0.25022266  0.54504910     0.77200
C1020       C  0.91678831  0.23626434  0.43730436     0.77200
C1021       C  0.73551147  0.10484067  0.97800539    -0.02000
C1022       C  0.77351657  0.57325194  0.98751616     0.07700
C1023       C  0.81947015  0.56625963  0.00319213    -0.02100
C1024       C  0.83330955  0.57860227  0.54273471    -0.02100
C1025       C  0.79802207  0.59892922  0.56653562     0.07800
C1026       C  0.74429881  0.13200364  0.52159434    -0.02300
Br1027     Br  0.73012087  0.19176018  0.52124241    -0.00900
Br1028     Br  0.68952465  0.12677145  0.92946727    -0.01000
Br1029     Br  0.88954119  0.56119167  0.57775634    -0.00900
Br1030     Br  0.86423565  0.53237054  0.96855856    -0.00900
C1031       C  0.72495896  0.89921193  0.69039056    -0.02000
C1032       C  0.72924384  0.40988100  0.67752323     0.07700
C1033       C  0.76464002  0.38734485  0.70800990    -0.02100
C1034       C  0.76220293  0.39476030  0.75650785    -0.02100
C1035       C  0.72975688  0.42992113  0.77011991     0.07800
C1036       C  0.72075688  0.92993645  0.72616921    -0.02300
Br1037     Br  0.68484384  0.98469529  0.71057491    -0.00900
Br1038     Br  0.72617692  0.84477930  0.71400232    -0.01000
Br1039     Br  0.79566649  0.35549945  0.80122703    -0.00900
Br1040     Br  0.81757164  0.35638064  0.68468156    -0.00900
C1041       C  0.53279445  0.20677947  0.94273697    -0.02000
C1042       C  0.54081247  0.24623948  0.45834945     0.07700
C1043       C  0.50633532  0.28164951  0.44844560    -0.02100
C1044       C  0.96108237  0.28242805  0.42200978    -0.02100
C1045       C  0.95352428  0.24118739  0.41597902     0.07800
C1046       C  0.99118208  0.20059223  0.91344899    -0.02300
Br1047     Br  0.98091504  0.14387460  0.90739268    -0.00900
Br1048     Br  0.57959095  0.15833691  0.95940255    -0.01000
Br1049     Br  0.91338349  0.33255331  0.41862012    -0.00900
Br1050     Br  0.51516064  0.33890258  0.45814653    -0.00900
C1051       C  0.75829122  0.31663874  0.57752403    -0.02000
C1052       C  0.78261278  0.27420080  0.58409500     0.07700
C1053       C  0.78715517  0.24679735  0.12799047    -0.02100
C1054       C  0.75566530  0.26761785  0.15722045    -0.02100
C1055       C  0.71936212  0.30816953  0.64066361     0.07800
C1056       C  0.72695839  0.33457307  0.60766269    -0.02300
Br1057     Br  0.67956690  0.38163077  0.58671715    -0.00900
Br1058     Br  0.76340895  0.34984927  0.52662812    -0.01000
Br1059     Br  0.74906896  0.24430071  0.21448495    -0.00900
Br1060     Br  0.82671085  0.19454420  0.14706413    -0.00900
C1061       C  0.58489845  0.46539742  0.71240651    -0.02000
C1062       C  0.07930972  0.44431597  0.68267666     0.07700
C1063       C  0.05947485  0.46069078  0.63966631    -0.02100
C1064       C  0.02045596  0.99113733  0.62832903    -0.02100
C1065       C  0.53442362  0.00733330  0.68096943     0.07800
C1066       C  0.57548681  0.98873915  0.70747160    -0.02300
Br1067     Br  0.59683404  0.01122686  0.76797157    -0.00900
Br1068     Br  0.61013232  0.44744901  0.77444208    -0.01000
Br1069     Br  0.97070339  0.01872892  0.58746287    -0.00900
Br1070     Br  0.05698318  0.42344067  0.58579022    -0.00900
C1071       C  0.52525410  0.25617320  0.84643796    -0.02000
C1072       C  0.99008785  0.29003179  0.81873900     0.07700
C1073       C  0.94658640  0.28579153  0.80707362    -0.02100
C1074       C  0.93809713  0.24550586  0.80268987    -0.02100
C1075       C  0.47715269  0.21057830  0.81631472     0.07800
C1076       C  0.52017201  0.21626306  0.83215266    -0.02300
Br1077     Br  0.57423424  0.17277053  0.82746445    -0.00900
Br1078     Br  0.58450093  0.26486010  0.86283732    -0.01000
Br1079     Br  0.87807050  0.23844049  0.79111082    -0.00900
Br1080     Br  0.90165142  0.33380756  0.78621692    -0.00900
C1081       C  0.86421545  0.60399213  0.30554377     0.02900
C1082       C  0.84076898  0.57134162  0.30887380    -0.13200
C1083       C  0.81230056  0.57311543  0.34451434     0.00400
C1084       C  0.80881367  0.60776559  0.37773325    -0.11700
C1085       C  0.83247286  0.63994004  0.37691135     0.02900
C1086       C  0.85890436  0.63784509  0.33987045    -0.11100
H1087       H  0.84524037  0.54440979  0.28453861     0.08500
H1088       H  0.78781611  0.60945545  0.40495602     0.06100
H1089       H  0.87651899  0.66270767  0.33829261     0.05900
C1090       C  0.88128053  0.84643637  0.05023652     0.02900
C1091       C  0.85435205  0.88846114  0.04512912    -0.13200
C1092       C  0.86152929  0.92282281  0.07627364     0.00400
C1093       C  0.89834454  0.91510379  0.10998975    -0.11700
C1094       C  0.92501512  0.87447083  0.11739829     0.02900
C1095       C  0.91675312  0.84035628  0.08699887    -0.11100
H1096       H  0.82653957  0.89407949  0.01846800     0.08500
H1097       H  0.90446625  0.94087798  0.13369761     0.06100
H1098       H  0.93663950  0.80888685  0.09327801     0.05900
C1099       C  0.65953622  0.90949780  0.39365146     0.02900
C1100       C  0.62997861  0.90646235  0.35254982    -0.13200
C1101       C  0.60037086  0.87889703  0.34741234     0.00400
C1102       C  0.59862265  0.85616332  0.38784311    -0.11700
C1103       C  0.62694583  0.85717930  0.43058363     0.02900
C1104       C  0.65779972  0.88417981  0.43223427    -0.11100
H1105       H  0.63035442  0.92598413  0.32384776     0.08500
H1106       H  0.57393204  0.83836268  0.38718349     0.06100
H1107       H  0.67908599  0.88685632  0.46391965     0.05900
C1108       C  0.64003231  0.59555430  0.13557135     0.02900
C1109       C  0.60297928  0.59538247  0.16029987    -0.13200
C1110       C  0.56347312  0.62893809  0.15732973     0.00400
C1111       C  0.56391365  0.66516542  0.13123256    -0.11700
C1112       C  0.60034367  0.66717666  0.10647361     0.02900
C1113       C  0.63579526  0.63066305  0.10719331    -0.11700
H1114       H  0.60393975  0.56816385  0.18026700     0.08500
H1115       H  0.53576324  0.69164839  0.12998178     0.06100
H1116       H  0.66109586  0.62916788  0.08493430     0.05900
O1117       O  0.48257355  0.63747306  0.16604483    -0.72000
O1118       O  0.89320673  0.60578433  0.22827447    -0.72200
O1119       O  0.92426495  0.67622260  0.21992294    -0.72000
O1120       O  0.95899623  0.56466921  0.16812101    -0.72000
O1121       O  0.48481774  0.55002115  0.24062781    -0.72000
O1122       O  0.47566653  0.66030496  0.27829833    -0.72000
O1123       O  0.93936651  0.59851776  0.29092338    -0.72000
O1124       O  0.52892364  0.61074956  0.22308474    -0.72200
V1125       V  0.93971924  0.62006759  0.19545948     1.35200
V1126       V  0.48049653  0.60604778  0.25782378     1.35200
C1127       C  0.52309277  0.62601672  0.18290733     0.77300
C1128       C  0.90004066  0.60138231  0.27274549     0.77300
C1129       C  0.44767710  0.68893327  0.25785810     0.77200
C1130       C  0.48177217  0.54268386  0.19787580     0.77200
O1131       O  0.65053720  0.79002896  0.47196099    -0.72000
O1132       O  0.62828953  0.69998895  0.04616372    -0.72200
O1133       O  0.59665551  0.73718110  0.45822961    -0.72000
O1134       O  0.68001116  0.75571438  0.55727687    -0.72000
O1135       O  0.63140165  0.80454786  0.09295384    -0.72000
O1136       O  0.54707164  0.77592488  0.00352534    -0.72000
O1137       O  0.58304537  0.74405383  0.08590650    -0.72000
O1138       O  0.59696671  0.83470953  0.49991236    -0.72200
V1139       V  0.63781487  0.74666183  0.50841199     1.35200
V1140       V  0.59042200  0.78901246  0.04647978     1.35200
C1141       C  0.62550778  0.82685390  0.47028195     0.77300
C1142       C  0.60316506  0.70559692  0.07832377     0.77300
C1143       C  0.55730330  0.75564139  0.96691033     0.77200
C1144       C  0.67042852  0.78405534  0.09408170     0.77200
O1145       O  0.79083503  0.97284735  0.05664736    -0.72000
O1146       O  0.68829926  0.53654857  0.09684277    -0.72200
O1147       O  0.74248385  0.05707157  0.05815483    -0.72000
O1148       O  0.73680890  0.95346674  0.10787315    -0.72000
O1149       O  0.75459979  0.46553872  0.18068259    -0.72000
O1150       O  0.79096050  0.55662864  0.13720640    -0.72000
O1151       O  0.71408308  0.55132159  0.16719336    -0.72000
O1152       O  0.83016985  0.98577186  0.12058190    -0.72200
V1153       V  0.73979773  0.00571238  0.08347831     1.35200
V1154       V  0.77040985  0.51103718  0.15688979     1.35200
C1155       C  0.82682926  0.96326088  0.08316993     0.77300
C1156       C  0.68206547  0.55885636  0.13410642     0.77300
C1157       C  0.76760261  0.08038182  0.07776635     0.77200
C1158       C  0.75833094  0.94480442  0.14715612     0.77200
O1159       O  0.57183401  0.84455786  0.27316317    -0.72000
O1160       O  0.99358858  0.84268537  0.16502549    -0.72200
O1161       O  0.56192013  0.86925469  0.18173743    -0.72000
O1162       O  0.49673219  0.81725699  0.24646869    -0.72000
O1163       O  0.96746150  0.87176296  0.28576185    -0.72000
O1164       O  0.01677745  0.92828380  0.20381931    -0.72000
O1165       O  0.94851773  0.89505008  0.19559359    -0.72000
O1166       O  0.53859100  0.90884312  0.28908166    -0.72200
V1167       V  0.52918528  0.84452223  0.21658393     1.35200
V1168       V  0.99337082  0.89992935  0.24504267     1.35200
C1169       C  0.56913961  0.87711645  0.30130133     0.77300
C1170       C  0.95704508  0.86959661  0.16110149     0.77300
C1171       C  0.04886648  0.90905589  0.18236183     0.77200
C1172       C  0.97561047  0.83219617  0.28001628     0.77200
O1173       O  0.72185922  0.54565396  0.42858542    -0.72000
O1174       O  0.70547274  0.48034742  0.31950266    -0.72200
O1175       O  0.67594198  0.97595951  0.37484201    -0.72000
O1176       O  0.74536940  0.54680626  0.34599096    -0.72000
O1177       O  0.80684965  0.50333758  0.36822955    -0.72000
O1178       O  0.73188296  0.93134837  0.40779588    -0.72000
O1179       O  0.77783478  0.94031309  0.33701114    -0.72000
O1180       O  0.76612409  0.99704553  0.45175961    -0.72200
V1181       V  0.71433345  0.51161731  0.37466193     1.35200
V1182       V  0.76955608  0.96898259  0.39390330     1.35200
C1183       C  0.75882518  0.53687061  0.45265847     0.77300
C1184       C  0.75336788  0.95530151  0.30171011     0.77300
C1185       C  0.69056707  0.94032372  0.39353695     0.77200
C1186       C  0.78736367  0.53879476  0.35094751     0.77200
O1187       O  0.85643863  0.66976200  0.45361308    -0.72000
O1188       O  0.88869240  0.77032301  0.03026616    -0.72200
O1189       O  0.82936361  0.72519600  0.03627681    -0.72000
O1190       O  0.91396526  0.72082298  0.95593888    -0.72000
O1191       O  0.86805755  0.75977992  0.40506587    -0.72000
O1192       O  0.78217801  0.76237635  0.48539821    -0.72000
O1193       O  0.84144920  0.81331301  0.98480286    -0.72000
O1194       O  0.81029850  0.71287722  0.40717360    -0.72200
V1195       V  0.87058959  0.72322012  0.99413914     1.35200
V1196       V  0.82577343  0.75972274  0.44532569     1.35200
C1197       C  0.83177106  0.67525560  0.41488157     0.77300
C1198       C  0.87027975  0.80847970  0.02034556     0.77300
C1199       C  0.79479239  0.75370676  0.03099547     0.77200
C1200       C  0.90545294  0.74236419  0.92014490     0.77200
C1201       C  0.75052912  0.60808231  0.49498003    -0.02000
C1202       C  0.76060125  0.06867923  0.47388642     0.07700
C1203       C  0.80603963  0.06350024  0.49321623    -0.02100
C1204       C  0.81637961  0.09134625  0.03053164    -0.02100
C1205       C  0.77907803  0.11287731  0.05068512     0.07800
C1206       C  0.76107405  0.62412825  0.05133036    -0.02300
Br1207     Br  0.72722471  0.66770578  0.08638088    -0.00900
Br1208     Br  0.69571847  0.63492505  0.46052247    -0.01000
Br1209     Br  0.87312897  0.09381779  0.06185437    -0.00900
Br1210     Br  0.85335835  0.01812660  0.47650587    -0.00900
C1211       C  0.68724106  0.41488669  0.19290257    -0.02000
C1212       C  0.76503064  0.90318705  0.16865392     0.07700
C1213       C  0.80425142  0.89571309  0.19953562    -0.02100
C1214       C  0.80253798  0.91724053  0.24357015    -0.02100
C1215       C  0.75995979  0.93511912  0.25707163     0.07800
C1216       C  0.69155005  0.44033924  0.23276331    -0.02300
Br1217     Br  0.67200117  0.50043086  0.22562933    -0.00900
Br1218     Br  0.66440477  0.36655717  0.20330120    -0.01000
Br1219     Br  0.85302832  0.93778811  0.27233356    -0.00900
Br1220     Br  0.85511891  0.85626943  0.18291609    -0.00900
C1221       C  0.51580786  0.71733940  0.40360802    -0.02000
C1222       C  0.52230761  0.75585676  0.93022013     0.07700
C1223       C  0.48961979  0.79372312  0.92587714    -0.02100
C1224       C  0.95170585  0.78785612  0.90723973    -0.02100
C1225       C  0.94193627  0.74768815  0.89854806     0.07800
C1226       C  0.97779602  0.70940123  0.39117488    -0.02300
Br1227     Br  0.96552642  0.65395564  0.37946399    -0.00900
Br1228     Br  0.56362299  0.66812825  0.40132992    -0.01000
Br1229     Br  0.90781717  0.83765465  0.92336151    -0.00900
Br1230     Br  0.50175009  0.84825198  0.94728854    -0.00900
C1231       C  0.74850658  0.81640998  0.06983814    -0.02000
C1232       C  0.77294592  0.77376915  0.07146303     0.07700
C1233       C  0.77461530  0.74893831  0.60797263    -0.02100
C1234       C  0.73976665  0.76344367  0.63529638    -0.02100
C1235       C  0.70516116  0.79848086  0.12383381     0.07800
C1236       C  0.71615544  0.83002200  0.10006705    -0.02300
Br1237     Br  0.67353076  0.88294507  0.09077718    -0.00900
Br1238     Br  0.75660710  0.85572087  0.02682174    -0.01000
Br1239     Br  0.73137558  0.73166659  0.68588502    -0.00900
Br1240     Br  0.82134947  0.70141996  0.62752332    -0.00900
C1241       C  0.59394132  0.94963892  0.18388439    -0.02000
C1242       C  0.07137055  0.93434794  0.15896894     0.07700
C1243       C  0.04512778  0.95562314  0.12133206    -0.02100
C1244       C  0.02774290  0.48731352  0.13706868    -0.02100
C1245       C  0.51899463  0.51227138  0.18112843     0.07800
C1246       C  0.55891779  0.50348754  0.21243456    -0.02300
Br1247     Br  0.57492631  0.53995239  0.26558567    -0.00900
Br1248     Br  0.63214715  0.91117972  0.22798907    -0.01000
Br1249     Br  0.98303882  0.50135380  0.08549387    -0.00900
Br1250     Br  0.03568818  0.92350916  0.06447900    -0.00900
C1251       C  0.49762420  0.77236743  0.31463044    -0.02000
C1252       C  0.96307655  0.80361232  0.30918189     0.07700
C1253       C  0.91992747  0.79691270  0.29834610    -0.02100
C1254       C  0.91401339  0.75741328  0.28027307    -0.02100
C1255       C  0.45004342  0.73067408  0.27372776     0.07800
C1256       C  0.49278151  0.73654766  0.28842724    -0.02300
Br1257     Br  0.54484862  0.69960948  0.26569502    -0.00900
Br1258     Br  0.55755950  0.77765218  0.33236410    -0.01000
Br1259     Br  0.85601018  0.74542317  0.26777311    -0.00900
Br1260     Br  0.86958911  0.84073439  0.30662311    -0.00900
C1261       C  0.86212813  0.60787593  0.81086989     0.02900
C1262       C  0.83919108  0.57518598  0.81549821    -0.13200
C1263       C  0.81099408  0.57757947  0.85141134     0.00400
C1264       C  0.80749008  0.61266223  0.88400727    -0.11700
C1265       C  0.83059752  0.64505089  0.88187456     0.02900
C1266       C  0.85653862  0.64252454  0.84426373    -0.11100
H1267       H  0.84380470  0.54773637  0.79187901     0.08500
H1268       H  0.78710272  0.61439143  0.91188338     0.06100
H1269       H  0.87382541  0.66746256  0.84173242     0.05900
C1270       C  0.87997157  0.84217478  0.54591382     0.02900
C1271       C  0.85228474  0.88406686  0.54165153    -0.13200
C1272       C  0.85942363  0.91837265  0.57304936     0.00400
C1273       C  0.89678565  0.91069705  0.60601450    -0.11700
C1274       C  0.92397757  0.87021283  0.61275439     0.02900
C1275       C  0.91587447  0.83621757  0.58216687    -0.11100
H1276       H  0.82420915  0.88966465  0.51535101     0.08500
H1277       H  0.90309553  0.93645176  0.62963957     0.06100
H1278       H  0.93639719  0.80490807  0.58779154     0.05900
C1279       C  0.65946550  0.90873395  0.89814135     0.02900
C1280       C  0.62671506  0.90818695  0.85936736    -0.13200
C1281       C  0.59688932  0.88082972  0.85507290     0.00400
C1282       C  0.59632578  0.85771204  0.89542178    -0.11700
C1283       C  0.62639068  0.85759276  0.93688105     0.02900
C1284       C  0.65898668  0.88265727  0.93660082    -0.11100
H1285       H  0.62497951  0.92932242  0.83170668     0.08500
H1286       H  0.57159717  0.84005828  0.89555866     0.06100
H1287       H  0.68268127  0.88318371  0.96672416     0.05900
C1288       C  0.63866091  0.59920747  0.63413185     0.02900
C1289       C  0.60129133  0.59856465  0.65787167    -0.13200
C1290       C  0.56164648  0.63173384  0.65410002     0.00400
C1291       C  0.56176127  0.66754681  0.62706798    -0.11700
C1292       C  0.59865686  0.66971551  0.60300551     0.02900
C1293       C  0.63504451  0.63419314  0.60594748    -0.11700
H1294       H  0.60233095  0.57134907  0.67794669     0.08500
H1295       H  0.53313678  0.69355004  0.62465298     0.06100
H1296       H  0.66164278  0.63338161  0.58559832     0.05900
O1297       O  0.48101422  0.63949994  0.66300551    -0.72000
O1298       O  0.89134614  0.60895663  0.73362953    -0.72200
O1299       O  0.92487498  0.67763797  0.72588937    -0.72000
O1300       O  0.95625659  0.56671171  0.67298909    -0.72000
O1301       O  0.48417632  0.55200698  0.73890982    -0.72000
O1302       O  0.47462000  0.66276621  0.77442195    -0.72000
O1303       O  0.93762040  0.59967630  0.79614887    -0.72000
O1304       O  0.52778179  0.61301666  0.71986901    -0.72200
V1305       V  0.93859335  0.62187371  0.70088263     1.35200
V1306       V  0.47968682  0.60830832  0.75499147     1.35200
C1307       C  0.52156877  0.62849052  0.67977969     0.77300
C1308       C  0.89809858  0.60414256  0.77804868     0.77300
C1309       C  0.44586807  0.69102051  0.75436240     0.77200
C1310       C  0.48135870  0.54393123  0.69632929     0.77200
O1311       O  0.65096269  0.79060507  0.97822497    -0.72000
O1312       O  0.62709753  0.70082582  0.54174004    -0.72200
O1313       O  0.59685979  0.73757109  0.96349838    -0.72000
O1314       O  0.68069149  0.75561130  0.06296058    -0.72000
O1315       O  0.63114221  0.80450569  0.58783614    -0.72000
O1316       O  0.54673539  0.77774672  0.49640228    -0.72000
O1317       O  0.58105560  0.74573707  0.57983562    -0.72000
O1318       O  0.59622263  0.83409979  0.00556375    -0.72200
V1319       V  0.63846834  0.74659064  0.01379083     1.35200
V1320       V  0.58994538  0.78998225  0.54048506     1.35200
C1321       C  0.62529429  0.82705278  0.97646062     0.77300
C1322       C  0.60147266  0.70722933  0.57353384     0.77300
C1323       C  0.55733611  0.75644164  0.46035838     0.77200
C1324       C  0.67006885  0.78354274  0.58891956     0.77200
O1325       O  0.78862599  0.96923347  0.55500345    -0.72000
O1326       O  0.68522471  0.53881834  0.59674521    -0.72200
O1327       O  0.74353549  0.05465419  0.55777595    -0.72000
O1328       O  0.73328479  0.95207705  0.60632464    -0.72000
O1329       O  0.75449072  0.47234165  0.68060638    -0.72000
O1330       O  0.78928436  0.56150130  0.63123592    -0.72000
O1331       O  0.71356033  0.55732896  0.66474836    -0.72000
O1332       O  0.82906390  0.98102941  0.61855001    -0.72200
V1333       V  0.73859860  0.00378771  0.58244887     1.35200
V1334       V  0.76938567  0.51698159  0.65394913     1.35200
C1335       C  0.82488995  0.95888511  0.58095299     0.77300
C1336       C  0.68037532  0.56276561  0.63298284     0.77300
C1337       C  0.76880242  0.07745029  0.57828060     0.77200
C1338       C  0.75513167  0.94216186  0.64517835     0.77200
O1339       O  0.56851688  0.84488410  0.78227966    -0.72000
O1340       O  0.99329838  0.83816219  0.65900981    -0.72200
O1341       O  0.56488698  0.86741075  0.69181596    -0.72000
O1342       O  0.49255911  0.81847863  0.75071129    -0.72000
O1343       O  0.97146572  0.87103227  0.78041362    -0.72000
O1344       O  0.01886028  0.92365705  0.69328732    -0.72000
O1345       O  0.94984964  0.89174307  0.68965997    -0.72000
O1346       O  0.53546967  0.90975051  0.79559626    -0.72200
V1347       V  0.52875830  0.84413730  0.72376307     1.35200
V1348       V  0.99622820  0.89725521  0.73697014     1.35200
C1349       C  0.56562470  0.87819133  0.80922685     0.77300
C1350       C  0.95704903  0.86552189  0.65557640     0.77300
C1351       C  0.05053530  0.90350822  0.67180377     0.77200
C1352       C  0.97919321  0.83137024  0.77633185     0.77200
O1353       O  0.71908998  0.54817026  0.93527273    -0.72000
O1354       O  0.70639005  0.48494953  0.82388902    -0.72200
O1355       O  0.67897392  0.97268965  0.87527207    -0.72000
O1356       O  0.74429676  0.55153820  0.85375384    -0.72000
O1357       O  0.80588773  0.50782570  0.87510474    -0.72000
O1358       O  0.73376496  0.92771844  0.90943476    -0.72000
O1359       O  0.77925185  0.93417065  0.83638042    -0.72000
O1360       O  0.77168840  0.99234587  0.95160412    -0.72200
V1361       V  0.71338691  0.51506069  0.88021710     1.35200
V1362       V  0.77304476  0.96339624  0.89383940     1.35200
C1363       C  0.75592951  0.54000819  0.95967265     0.77300
C1364       C  0.75510927  0.95032855  0.80125887     0.77300
C1365       C  0.69234595  0.93764171  0.89550402     0.77200
C1366       C  0.78624075  0.54345310  0.85840579     0.77200
O1367       O  0.85557650  0.67476788  0.95808999    -0.72000
O1368       O  0.88863170  0.76595411  0.52556598    -0.72200
O1369       O  0.82965699  0.72055120  0.53171825    -0.72000
O1370       O  0.91451446  0.71622307  0.45148802    -0.72000
O1371       O  0.86731594  0.76415571  0.90941801    -0.72000
O1372       O  0.78208305  0.76809009  0.99080150    -0.72000
O1373       O  0.84091301  0.80855968  0.48017112    -0.72000
O1374       O  0.80904767  0.71814936  0.91224953    -0.72200
V1375       V  0.87101517  0.71851029  0.48957509     1.35200
V1376       V  0.82537271  0.76478321  0.95020278     1.35200
C1377       C  0.83050973  0.68044902  0.91965456     0.77300
C1378       C  0.86964951  0.80403182  0.51577516     0.77300
C1379       C  0.79489402  0.74881724  0.52593685     0.77200
C1380       C  0.90629927  0.73833922  0.41611430     0.77200
C1381       C  0.74540493  0.60883020  0.00721543    -0.02000
C1382       C  0.76427718  0.06452167  0.97419683     0.07700
C1383       C  0.80889638  0.06047397  0.99558733    -0.02100
C1384       C  0.81524481  0.09210206  0.52989490    -0.02100
C1385       C  0.77927549  0.11173916  0.55310973     0.07800
C1386       C  0.76404095  0.62467336  0.53901587    -0.02300
Br1387     Br  0.72741517  0.66897644  0.57004870    -0.00900
Br1388     Br  0.68688767  0.63258058  0.97891199    -0.01000
Br1389     Br  0.87328523  0.09400384  0.55790795    -0.00900
Br1390     Br  0.85708159  0.01446184  0.98250012    -0.00900
C1391       C  0.68978938  0.42038056  0.69698162    -0.02000
C1392       C  0.76030949  0.90048509  0.66608824     0.07700
C1393       C  0.80022053  0.89075599  0.69576814    -0.02100
C1394       C  0.80092126  0.91174414  0.74014286    -0.02100
C1395       C  0.75950149  0.93027772  0.75593096     0.07800
C1396       C  0.69452902  0.44634459  0.73637314    -0.02300
Br1397     Br  0.67423736  0.50650272  0.72952334    -0.00900
Br1398     Br  0.66873126  0.37146456  0.70967280    -0.01000
Br1399     Br  0.85147260  0.93460542  0.76336579    -0.00900
Br1400     Br  0.85040414  0.85271600  0.67541784    -0.00900
C1401       C  0.51511546  0.71775904  0.90892130    -0.02000
C1402       C  0.52310839  0.75608908  0.42289114     0.07700
C1403       C  0.49001832  0.79352822  0.41818698    -0.02100
C1404       C  0.95178214  0.78559313  0.40725786    -0.02100
C1405       C  0.94318141  0.74516354  0.39617169     0.07800
C1406       C  0.97531786  0.71118238  0.89208226    -0.02300
Br1407     Br  0.96174593  0.65600043  0.88510418    -0.00900
Br1408     Br  0.56210828  0.66767552  0.90894191    -0.01000
Br1409     Br  0.90580158  0.83492371  0.41904393    -0.00900
Br1410     Br  0.50232340  0.84860820  0.43617177    -0.00900
C1411       C  0.74889460  0.81270835  0.56361805    -0.02000
C1412       C  0.77306642  0.76993275  0.56612671     0.07700
C1413       C  0.77469194  0.75184413  0.11271590    -0.02100
C1414       C  0.73998650  0.76564808  0.14031827    -0.02100
C1415       C  0.70549981  0.79689003  0.61874487     0.07800
C1416       C  0.71734359  0.82763058  0.59455844    -0.02300
Br1417     Br  0.67529871  0.88087081  0.58478140    -0.00900
Br1418     Br  0.75482649  0.85012691  0.51740539    -0.01000
Br1419     Br  0.73243752  0.73395608  0.19136550    -0.00900
Br1420     Br  0.82186679  0.70448126  0.13144398    -0.00900
C1421       C  0.59757783  0.94804314  0.69390603    -0.02000
C1422       C  0.07400035  0.92772483  0.64782339     0.07700
C1423       C  0.04683961  0.95276590  0.61348881    -0.02100
C1424       C  0.03338446  0.50178200  0.63999492    -0.02100
C1425       C  0.51872606  0.51320404  0.68037527     0.07800
C1426       C  0.55905494  0.50595292  0.71126080    -0.02300
Br1427     Br  0.57376950  0.54312878  0.76430085    -0.00900
Br1428     Br  0.63319194  0.91193301  0.74155088    -0.01000
Br1429     Br  0.00316961  0.52741296  0.58378524    -0.00900
Br1430     Br  0.03491486  0.92673295  0.55334002    -0.00900
C1431       C  0.48991116  0.77537123  0.81845491    -0.02000
C1432       C  0.96809280  0.80431043  0.80817037     0.07700
C1433       C  0.92464759  0.79815474  0.80040602    -0.02100
C1434       C  0.91750927  0.75846167  0.78500098    -0.02100
C1435       C  0.44623335  0.73300175  0.77166334     0.07800
C1436       C  0.48782757  0.73987964  0.79015489    -0.02300
Br1437     Br  0.54228437  0.70519585  0.76960531    -0.00900
Br1438     Br  0.54854974  0.78251012  0.83977323    -0.01000
Br1439     Br  0.85890986  0.74753766  0.77567960    -0.00900
Br1440     Br  0.87556488  0.84296194  0.80953331    -0.00900
loop_ 
_geom_bond_atom_site_label_1 
_geom_bond_atom_site_label_2 
_geom_bond_distance 
_geom_bond_site_symmetry_2 
_ccdc_geom_bond_type 
C1            C2   1.423       .  A
C1            C6   1.433       .  A
C1           C48   1.532       .  S
C2            C3   1.425       .  A
C2            H7   1.083       .  S
C3            C4   1.424       .  A
C3          C106   1.518       .  S
C4            C5   1.409       .  A
C4            H8   1.071       .  S
C5            C6   1.427       .  A
C5          C117   1.539       .  S
C6            H9   1.080       .  S
C10          C11   1.433       .  A
C10          C15   1.433       .  A
C10         C118   1.547       .  S
C11          C12   1.430       .  A
C11          H16   1.078       .  S
C12          C13   1.403       .  A
C12          C75   1.526       .  S
C13          C14   1.415       .  A
C13          H17   1.083       .  S
C14          C15   1.428       .  A
C14          C90   1.517       .  S
C15          H18   1.083       .  S
C19          C20   1.412       .  A
C19          C24   1.441       .  A
C19         C105   1.549       .  S
C20          C21   1.412       .  A
C20          H25   1.066       .  S
C21          C22   1.429       .  A
C21          C89   1.546       .  S
C22          C23   1.432       .  A
C22          H26   1.072       .  S
C23          C24   1.449       .  A
C23          C61   1.566       .  S
C24          H27   1.076       .  S
C28          C29   1.411       .  A
C28          C33   1.402       .  A
C28          C76   1.503       .  S
C29          C30   1.424       .  A
C29          H34   1.081       .  S
C30          C31   1.447       .  A
C30          C47   1.539       .  S
C31          C32   1.442       .  A
C31          H35   1.082       .  S
C32          C33   1.414       .  A
C32          C62   1.540       .  S
C33          H36   1.084       .  S
O37          C47   1.271   1_655  A
O37         V765   1.950       .  S
O38          C48   1.284       .  A
O38          V45   1.963       .  S
O39         C769   1.261       .  A
O39          V45   1.872       .  S
O40         C770   1.266       .  A
O40          V45   1.911       .  S
O41          C50   1.240       .  A
O41          V46   1.840       .  S
O42          C49   1.240       .  A
O42          V46   1.796       .  S
O43          C48   1.266       .  A
O43         V766   1.921       .  S
O44          C47   1.275       .  A
O44          V46   1.955   1_455  S
V45         O757   1.953       .  S
V45         V766   2.071       .  T
V46         O763   1.906       .  S
V46         V765   2.068       .  T
C49         C175   1.424       .  S
C49         O759   1.264       .  A
C50         C165   1.479   1_655  S
C50         O760   1.270       .  A
O51          C61   1.273       .  A
O51          V59   1.947       .  S
O52          C62   1.271       .  A
O52         V239   1.915       .  S
O53         C243   1.253       .  A
O53          V59   1.863       .  S
O54         C244   1.258       .  A
O54          V59   1.861       .  S
O55          C64   1.258       .  A
O55          V60   1.884       .  S
O56          C63   1.256   1_554  A
O56          V60   1.842       .  S
O57          C62   1.279       .  A
O57          V60   1.969       .  S
O58          C61   1.288       .  A
O58         V240   1.987       .  S
V59         O232   1.913       .  S
V59         V240   2.071       .  T
V60         O238   1.977       .  S
V60         V239   2.075       .  T
C63         C142   1.413       .  S
C63         O233   1.252       .  A
C64         C155   1.446       .  S
C64         O234   1.257       .  A
O65          C75   1.265       .  A
O65          V73   1.919       .  S
O66          C76   1.266       .  A
O66         V433   1.916       .  S
O67          C77   1.273       .  A
O67          V73   1.879       .  S
O68          C78   1.263       .  A
O68          V73   1.906       .  S
O69         C438   1.263       .  A
O69          V74   1.846   1_565  S
O70         C437   1.252       .  A
O70          V74   1.880       .  S
O71          C76   1.273       .  A
O71          V74   1.934       .  S
O72          C75   1.281       .  A
O72         V434   1.946       .  S
V73         O426   1.937       .  S
V73         V434   2.081       .  T
V74         O432   1.921   1_545  S
V74         V433   2.081       .  T
C77         C125   1.476       .  S
C77         O430   1.248       .  A
C78         C132   1.473       .  S
C78         O429   1.257       .  A
O79          C89   1.284       .  A
O79          V87   1.974       .  S
O80          C90   1.275       .  A
O80         V807   1.950       .  S
O81         C811   1.250       .  A
O81          V87   1.866       .  S
O82         C812   1.254       .  A
O82          V87   1.812       .  S
O83          C92   1.254       .  A
O83          V88   1.874       .  S
O84          C91   1.266       .  A
O84          V88   1.861       .  S
O85          C90   1.269       .  A
O85          V88   1.905       .  S
O86          C89   1.272       .  A
O86         V808   1.933       .  S
V87         O800   1.959       .  S
V87         V808   2.081       .  T
V88         O806   1.933       .  S
V88         V807   2.083       .  T
C91         C162   1.432       .  S
C91         O801   1.248       .  A
C92         C172   1.417       .  S
C92         O802   1.254       .  A
O93         C103   1.255       .  A
O93         V101   1.854       .  S
O94         C464   1.256       .  A
O94         V101   1.851   1_565  S
O95         C105   1.276       .  A
O95         V461   1.942       .  S
O96         C106   1.269       .  A
O96         V101   1.928       .  S
O97         C106   1.277   1_565  A
O97         V462   1.949       .  S
O98         C105   1.279       .  A
O98         V102   1.966       .  S
O99         C104   1.255       .  A
O99         V102   1.873       .  S
O100        C463   1.261       .  A
O100        V102   1.871       .  S
V101        O455   1.930   1_545  S
V101        V462   2.082   1_545  T
V102        O457   1.947       .  S
V102        V461   2.082       .  T
C103        C482   1.461       .  S
C103        O460   1.256   1_545  A
C104        C135   1.453       .  S
C104        O454   1.260       .  A
O107        C117   1.280       .  A
O107        V295   1.955       .  S
O108        C118   1.275       .  A
O108        V115   1.948       .  S
O109        C119   1.261       .  A
O109        V115   1.888       .  S
O110        C120   1.257       .  A
O110        V115   1.845   1_556  S
O111        C300   1.250       .  A
O111        V116   1.848       .  S
O112        C299   1.257       .  A
O112        V116   1.865       .  S
O113        C118   1.278       .  A
O113        V296   1.955   1_554  S
O114        C117   1.271       .  A
O114        V116   1.935       .  S
V115        O287   1.950   1_554  S
V115        V296   2.083   1_554  T
V116        O293   1.955       .  S
V116        V295   2.083       .  T
C119        C152   1.479       .  S
C119        O292   1.259       .  A
C120        C145   1.411       .  S
C120        O291   1.249       .  A
C121        C482   1.420       .  A
C121        C306   1.399       .  A
C121       Br128   1.928       .  S
C122        C123   1.428       .  A
C122        C481   1.420       .  A
C122        C463   1.471       .  S
C123        C304   1.400       .  A
C123       Br130   1.923       .  S
C124        C125   1.390       .  A
C124        C303   1.403       .  A
C124       Br129   1.907       .  S
C125        C486   1.392       .  A
C126        C301   1.400   1_554  A
C126        C485   1.403       .  A
C126       Br127   1.894       .  S
C131        C136   1.390       .  A
C131        C492   1.394       .  A
C131       Br138   1.924       .  S
C132        C133   1.412       .  A
C132        C491   1.391       .  A
C133        C134   1.416       .  A
C133       Br140   1.911       .  S
C134        C135   1.422       .  A
C134       Br139   1.915       .  S
C135        C496   1.402       .  A
C136        C495   1.397       .  A
C136       Br137   1.934       .  S
C141        C322   1.401       .  A
C141        C866   1.387   1_455  A
C141       Br148   1.931       .  S
C142        C143   1.405       .  A
C142        C321   1.403       .  A
C143        C864   1.381   1_455  A
C143       Br150   1.936       .  S
C144        C145   1.409       .  A
C144        C863   1.378       .  A
C144       Br149   1.945       .  S
C145        C326   1.406       .  A
C146        C861   1.383       .  A
C146        C325   1.406       .  A
C146       Br147   1.935       .  S
C151        C152   1.430       .  A
C151        C156   1.401       .  A
C151       Br158   1.923       .  S
C152        C333   1.418       .  A
C153        C154   1.408       .  A
C153        C332   1.421       .  A
C153       Br160   1.929       .  S
C154        C335   1.401       .  A
C154       Br159   1.918       .  S
C155        C156   1.397       .  A
C155        C334   1.403       .  A
C156       Br157   1.945       .  S
C161        C882   1.397       .  A
C161        C526   1.382       .  A
C161       Br168   1.938       .  S
C162        C163   1.396       .  A
C162        C881   1.394       .  A
C163        C524   1.401       .  A
C163       Br170   1.923       .  S
C164        C523   1.404       .  A
C164        C885   1.411   1_565  A
C164       Br169   1.919   1_565  S
C165        C166   1.442   1_545  A
C165        C884   1.411   1_545  A
C166        C521   1.399       .  A
C166       Br167   1.957   1_565  S
C171        C176   1.373       .  A
C171        C892   1.400   1_455  A
C171       Br178   1.944       .  S
C172        C173   1.397       .  A
C172        C891   1.406       .  A
C173        C174   1.385       .  A
C173       Br180   1.904       .  S
C174        C895   1.402       .  A
C174       Br179   1.934       .  S
C175        C176   1.424   1_655  A
C175        C894   1.404       .  A
C176       Br177   1.960       .  S
C181        C182   1.419       .  A
C181        C186   1.436       .  A
C181        C228   1.532       .  S
C182        C183   1.422       .  A
C182        H187   1.083       .  S
C183        C184   1.423       .  A
C183        C286   1.510       .  S
C184        C185   1.408       .  A
C184        H188   1.073       .  S
C185        C186   1.431       .  A
C185        C297   1.541       .  S
C186        H189   1.081       .  S
C190        C191   1.437       .  A
C190        C195   1.436       .  A
C190        C298   1.554       .  S
C191        C192   1.432       .  A
C191        H196   1.078       .  S
C192        C193   1.400       .  A
C192        C255   1.530       .  S
C193        C194   1.414       .  A
C193        H197   1.083       .  S
C194        C195   1.432       .  A
C194        C270   1.521       .  S
C195        H198   1.083       .  S
C199        C200   1.419       .  A
C199        C204   1.436       .  A
C199        C285   1.546       .  S
C200        C201   1.419       .  A
C200        H205   1.068       .  S
C201        C202   1.427       .  A
C201        C269   1.555       .  S
C202        C203   1.432       .  A
C202        H206   1.071       .  S
C203        C204   1.441       .  A
C203        C241   1.555       .  S
C204        H207   1.077       .  S
C208        C209   1.414       .  A
C208        C213   1.406       .  A
C208        C256   1.510       .  S
C209        C210   1.426       .  A
C209        H214   1.081       .  S
C210        C211   1.445       .  A
C210        C227   1.538       .  S
C211        C212   1.438       .  A
C211        H215   1.082       .  S
C212        C213   1.417       .  A
C212        C242   1.540       .  S
C213        H216   1.085       .  S
O217        C227   1.273   1_655  A
O217        V945   1.950       .  S
O218        C228   1.284       .  A
O218        V225   1.964       .  S
O219        C949   1.260       .  A
O219        V225   1.872       .  S
O220        C950   1.266       .  A
O220        V225   1.913       .  S
O221        C230   1.246   1_455  A
O221        V226   1.845   1_455  S
O222        C229   1.245       .  A
O222        V226   1.815       .  S
O223        C228   1.265       .  A
O223        V946   1.917       .  S
O224        C227   1.277       .  A
O224        V226   1.951   1_455  S
V225        O937   1.953       .  S
V225        V946   2.073       .  T
V226        O943   1.909       .  S
V226        V945   2.074       .  T
C229        C355   1.420       .  S
C229        O939   1.260       .  A
C230        C345   1.477   1_655  S
C230        O940   1.266       .  A
O231        C241   1.273       .  A
O231        V239   1.945   1_556  S
O232        C242   1.269       .  A
O233        V239   1.859   1_556  S
O234        V239   1.859       .  S
O235        C244   1.257       .  A
O235        V240   1.883       .  S
O236        C243   1.255       .  A
O236        V240   1.843       .  S
O237        C242   1.282       .  A
O237        V240   1.975       .  S
O238        C241   1.284   1_554  A
C243        C322   1.416       .  S
C244        C335   1.448       .  S
O245        C255   1.264       .  A
O245        V253   1.921       .  S
O246        C256   1.267       .  A
O246        V613   1.919       .  S
O247        C257   1.273       .  A
O247        V253   1.880       .  S
O248        C258   1.264       .  A
O248        V253   1.896       .  S
O249        C618   1.266       .  A
O249        V254   1.848   1_565  S
O250        C617   1.252       .  A
O250        V254   1.883       .  S
O251        C256   1.275       .  A
O251        V254   1.939       .  S
O252        C255   1.283       .  A
O252        V614   1.948       .  S
V253        O606   1.941       .  S
V253        V614   2.080       .  T
V254        O612   1.915   1_545  S
V254        V613   2.079       .  T
C257        C305   1.476       .  S
C257        O610   1.248       .  A
C258        C312   1.459       .  S
C258        O609   1.255       .  A
O259        C269   1.285       .  A
O259        V267   1.979       .  S
O260        C270   1.276       .  A
O260        V987   1.954       .  S
O261        C991   1.246       .  A
O261        V267   1.857       .  S
O262        C992   1.251       .  A
O262        V267   1.809       .  S
O263        C272   1.252       .  A
O263        V268   1.862       .  S
O264        C271   1.265       .  A
O264        V268   1.857       .  S
O265        C270   1.269       .  A
O265        V268   1.906       .  S
O266        C269   1.273       .  A
O266        V988   1.939       .  S
V267        O980   1.951       .  S
V267        V988   2.085       .  T
V268        O986   1.932       .  S
V268        V987   2.082       .  T
C271        C342   1.434       .  S
C271        O981   1.249       .  A
C272        C352   1.404       .  S
C272        O982   1.253       .  A
O273        C283   1.256       .  A
O273        V281   1.857       .  S
O274        C644   1.256       .  A
O274        V281   1.848   1_565  S
O275        C285   1.274       .  A
O275        V641   1.935       .  S
O276        C286   1.267       .  A
O276        V281   1.921       .  S
O277        C286   1.277   1_565  A
O277        V642   1.947       .  S
O278        C285   1.280       .  A
O278        V282   1.965       .  S
O279        C284   1.256       .  A
O279        V282   1.876       .  S
O280        C643   1.263       .  A
O280        V282   1.879       .  S
V281        O635   1.932   1_545  S
V281        V642   2.083   1_545  T
V282        O637   1.948       .  S
V282        V641   2.082       .  T
C283        C662   1.461       .  S
C283        O640   1.255   1_545  A
C284        C315   1.449       .  S
C284        O634   1.257       .  A
O287        C297   1.278       .  A
O288        C298   1.277       .  A
O288        V295   1.959       .  S
O289        C299   1.258       .  A
O289        V295   1.881       .  S
O290        C300   1.254       .  A
O290        V295   1.836       .  S
O291        V296   1.846       .  S
O292        V296   1.870   1_554  S
O293        C298   1.277       .  A
O294        C297   1.274       .  A
O294        V296   1.940       .  S
C299        C332   1.475       .  S
C300        C325   1.406       .  S
C301        C662   1.416       .  A
C301       Br308   1.927       .  S
C302        C661   1.423   1_556  A
C302        C303   1.425   1_556  A
C302        C643   1.471       .  S
C303       Br310   1.922   1_554  S
C304        C305   1.388       .  A
C304       Br309   1.907       .  S
C305        C666   1.393       .  A
C306        C665   1.400       .  A
C306       Br307   1.886       .  S
C311        C672   1.396       .  A
C311        C316   1.388       .  A
C311       Br318   1.929       .  S
C312        C671   1.387       .  A
C312        C313   1.422       .  A
C313        C314   1.417       .  A
C313       Br320   1.913       .  S
C314        C315   1.415       .  A
C314       Br319   1.911       .  S
C315        C676   1.408       .  A
C316        C675   1.400       .  A
C316       Br317   1.933       .  S
C321       C1046   1.385   1_455  A
C321       Br328   1.933       .  S
C322        C323   1.406       .  A
C323       C1044   1.381   1_455  A
C323       Br330   1.937       .  S
C324       C1043   1.375       .  A
C324        C325   1.409       .  A
C324       Br329   1.946       .  S
C326       C1041   1.384       .  A
C326       Br327   1.932       .  S
C331        C332   1.432       .  A
C331        C336   1.401       .  A
C331       Br338   1.931       .  S
C333        C334   1.409       .  A
C333       Br340   1.927       .  S
C334       Br339   1.918       .  S
C335        C336   1.398       .  A
C336       Br337   1.943       .  S
C341       C1062   1.397       .  A
C341        C706   1.378       .  A
C341       Br348   1.926       .  S
C342       C1061   1.398       .  A
C342        C343   1.396       .  A
C343        C704   1.402       .  A
C343       Br350   1.921       .  S
C344        C703   1.406       .  A
C344       C1065   1.414   1_565  A
C344       Br349   1.917   1_565  S
C345       C1064   1.416   1_545  A
C345        C346   1.441   1_545  A
C346        C701   1.407       .  A
C346       Br347   1.950   1_565  S
C351       C1072   1.401   1_455  A
C351        C356   1.372       .  A
C351       Br358   1.944       .  S
C352       C1071   1.403       .  A
C352        C353   1.398       .  A
C353        C354   1.387       .  A
C353       Br360   1.920       .  S
C354       C1075   1.405       .  A
C354       Br359   1.932       .  S
C355       C1074   1.405       .  A
C355        C356   1.419   1_655  A
C356       Br357   1.955       .  S
C361        C362   1.430       .  A
C361        C366   1.431       .  A
C361        C408   1.542       .  S
C362        C363   1.433       .  A
C362        H367   1.083       .  S
C363        C364   1.423       .  A
C363        C466   1.521       .  S
C364        C365   1.410       .  A
C364        H368   1.081       .  S
C365        C366   1.426       .  A
C365        C477   1.533       .  S
C366        H369   1.082       .  S
C370        C371   1.438       .  A
C370        C375   1.425       .  A
C370        C478   1.537       .  S
C371        C372   1.428       .  A
C371        H376   1.079       .  S
C372        C373   1.403       .  A
C372        C435   1.526       .  S
C373        C374   1.410       .  A
C373        H377   1.083       .  S
C374        C375   1.419       .  A
C374        C450   1.505       .  S
C375        H378   1.083       .  S
C379        C380   1.422       .  A
C379        C384   1.440       .  A
C379        C465   1.550       .  S
C380        C381   1.416       .  A
C380        H385   1.070       .  S
C381        C382   1.431       .  A
C381        C449   1.561       .  S
C382        C383   1.432       .  A
C382        H386   1.064       .  S
C383        C384   1.441       .  A
C383        C421   1.564       .  S
C384        H387   1.075       .  S
C388        C389   1.432       .  A
C388        C393   1.416       .  A
C388        C436   1.553       .  S
C389        C390   1.444       .  A
C389        H394   1.080       .  S
C390        C391   1.442       .  A
C390        C407   1.560       .  S
C391        C392   1.439       .  A
C391        H395   1.082       .  S
C392        C393   1.426       .  A
C392        C422   1.555       .  S
C393        H396   1.075       .  S
O397        C407   1.279   1_655  A
O397       V1125   1.977       .  S
O398        C408   1.290       .  A
O398        V405   1.989       .  S
O399       C1129   1.261       .  A
O399        V405   1.888       .  S
O400       C1130   1.264       .  A
O400        V405   1.911       .  S
O401        C410   1.239       .  A
O401        V406   1.834       .  S
O402        C409   1.245       .  A
O402        V406   1.795       .  S
O403        C408   1.262       .  A
O403       V1126   1.910       .  S
O404        C407   1.268       .  A
O404        V406   1.961   1_455  S
V405       O1117   1.982       .  S
V405       V1126   2.069       .  T
V406       O1123   1.912       .  S
V406       V1125   2.066       .  T
C409        C535   1.419       .  S
C409       O1119   1.263       .  A
C410        C525   1.466   1_655  S
C410       O1120   1.266       .  A
O411        C421   1.271       .  A
O411        V419   1.945       .  S
O412        C422   1.272       .  A
O412        V599   1.934       .  S
O413        C603   1.258       .  A
O413        V419   1.880       .  S
O414        C604   1.264       .  A
O414        V419   1.873       .  S
O415        C424   1.250       .  A
O415        V420   1.864       .  S
O416        C423   1.250       .  A
O416        V420   1.822   1_556  S
O417        C422   1.282       .  A
O417        V420   1.976       .  S
O418        C421   1.289       .  A
O418        V600   1.985       .  S
V419        O592   1.930       .  S
V419        V600   2.078       .  T
V420        O598   1.995   1_554  S
V420        V599   2.078       .  T
C423        C502   1.426       .  S
C423        O593   1.259       .  A
C424        C515   1.447       .  S
C424        O594   1.265       .  A
O425        C435   1.271       .  A
O425        V433   1.935   1_565  S
O426        C436   1.270       .  A
O427        C437   1.272       .  A
O427        V433   1.887       .  S
O428        C438   1.260       .  A
O428        V433   1.903   1_565  S
O429        V434   1.838       .  S
O430        V434   1.880       .  S
O431        C436   1.285       .  A
O431        V434   1.978       .  S
O432        C435   1.274       .  A
C437        C485   1.484       .  S
C438        C492   1.478       .  S
O439        C449   1.285       .  A
O439        V447   1.977       .  S
O440        C450   1.273       .  A
O440       V1167   1.939       .  S
O441       C1171   1.252       .  A
O441        V447   1.862       .  S
O442       C1172   1.258       .  A
O442        V447   1.819   1_655  S
O443        C452   1.258       .  A
O443        V448   1.900       .  S
O444        C451   1.271       .  A
O444        V448   1.872       .  S
O445        C450   1.268       .  A
O445        V448   1.900       .  S
O446        C449   1.274       .  A
O446       V1168   1.949   1_455  S
V447       O1160   1.938   1_455  S
V447       V1168   2.073   1_455  T
V448       O1166   1.943       .  S
V448       V1167   2.073       .  T
C451        C522   1.447       .  S
C451       O1161   1.250       .  A
C452        C532   1.437       .  S
C452       O1162   1.255       .  A
O453        C463   1.259       .  A
O453        V461   1.882       .  S
O454        V461   1.862       .  S
O455        C465   1.273       .  A
O456        C466   1.270       .  A
O456        V461   1.930       .  S
O457        C466   1.275       .  A
O458        C465   1.283       .  A
O458        V462   1.974       .  S
O459        C464   1.257       .  A
O459        V462   1.875       .  S
O460        V462   1.871       .  S
C464        C495   1.435       .  S
O467        C477   1.277       .  A
O467        V655   1.945       .  S
O468        C478   1.277       .  A
O468        V475   1.948   1_554  S
O469        C479   1.255       .  A
O469        V475   1.873   1_554  S
O470        C480   1.254       .  A
O470        V475   1.839       .  S
O471        C660   1.256       .  A
O471        V476   1.869       .  S
O472        C659   1.265       .  A
O472        V476   1.885       .  S
O473        C478   1.273   1_556  A
O473        V656   1.940       .  S
O474        C477   1.272       .  A
O474        V476   1.936       .  S
V475        O647   1.947       .  S
V475        V656   2.085       .  T
V476        O653   1.939       .  S
V476        V655   2.085       .  T
C479        C512   1.472       .  S
C479        O652   1.264   1_554  A
C480        C505   1.417       .  S
C480        O651   1.256       .  A
C481        C666   1.413       .  A
C481       Br488   1.919       .  S
C482        C483   1.432       .  A
C483        C664   1.414       .  A
C483       Br490   1.925       .  S
C484        C663   1.415   1_554  A
C484        C485   1.396       .  A
C484       Br489   1.912       .  S
C486        C661   1.411       .  A
C486       Br487   1.889       .  S
C491        C496   1.390       .  A
C491       Br498   1.920       .  S
C492        C493   1.411       .  A
C493        C494   1.415       .  A
C493       Br500   1.900       .  S
C494        C495   1.415       .  A
C494       Br499   1.928       .  S
C496       Br497   1.938       .  S
C501        C682   1.399       .  A
C501       C1226   1.392   1_455  A
C501       Br508   1.931       .  S
C502        C681   1.397       .  A
C502        C503   1.413   1_455  A
C503       C1224   1.378       .  A
C503       Br510   1.938   1_655  S
C504       C1223   1.379       .  A
C504        C505   1.408       .  A
C504       Br509   1.941       .  S
C505        C686   1.413       .  A
C506       C1221   1.391       .  A
C506        C685   1.413       .  A
C506       Br507   1.925       .  S
C511        C512   1.423       .  A
C511        C516   1.399       .  A
C511       Br518   1.909       .  S
C512        C693   1.415       .  A
C513        C692   1.416       .  A
C513        C514   1.407       .  A
C513       Br520   1.928       .  S
C514        C695   1.403       .  A
C514       Br519   1.919       .  S
C515        C694   1.402       .  A
C515        C516   1.395       .  A
C516       Br517   1.939       .  S
C521       C1242   1.389       .  A
C521       Br528   1.936       .  S
C522       C1241   1.389       .  A
C522        C523   1.398       .  A
C523       Br530   1.918       .  S
C524       C1245   1.410       .  A
C524       Br529   1.916       .  S
C525       C1244   1.408       .  A
C525        C526   1.433       .  A
C526       Br527   1.969       .  S
C531       C1252   1.411       .  A
C531        C536   1.375       .  A
C531       Br538   1.931   1_655  S
C532       C1251   1.413       .  A
C532        C533   1.409       .  A
C533        C534   1.396       .  A
C533       Br540   1.895       .  S
C534       C1255   1.397       .  A
C534       Br539   1.930       .  S
C535       C1254   1.396       .  A
C535        C536   1.407       .  A
C536       Br537   1.953   1_655  S
C541        C542   1.430       .  A
C541        C546   1.430       .  A
C541        C588   1.540       .  S
C542        C543   1.433       .  A
C542        H547   1.083       .  S
C543        C544   1.426       .  A
C543        C646   1.525       .  S
C544        C545   1.413       .  A
C544        H548   1.080       .  S
C545        C546   1.425       .  A
C545        C657   1.535       .  S
C546        H549   1.082       .  S
C550        C551   1.437       .  A
C550        C555   1.427       .  A
C550        C658   1.536       .  S
C551        C552   1.428       .  A
C551        H556   1.080       .  S
C552        C553   1.398       .  A
C552        C615   1.519       .  S
C553        C554   1.403       .  A
C553        H557   1.084       .  S
C554        C555   1.420       .  A
C554        C630   1.503       .  S
C555        H558   1.083       .  S
C559        C560   1.425       .  A
C559        C564   1.442       .  A
C559        C645   1.548       .  S
C560        C561   1.417       .  A
C560        H565   1.077       .  S
C561        C562   1.435       .  A
C561        C629   1.560       .  S
C562        C563   1.432       .  A
C562        H566   1.059       .  S
C563        C564   1.440       .  A
C563        C601   1.576       .  S
C564        H567   1.072       .  S
C568        C569   1.438       .  A
C568        C573   1.415       .  A
C568        C616   1.563       .  S
C569        C570   1.450       .  A
C569        H574   1.077       .  S
C570        C571   1.439       .  A
C570        C587   1.565       .  S
C571        C572   1.436       .  A
C571        H575   1.083       .  S
C572        C573   1.426       .  A
C572        C602   1.551       .  S
C573        H576   1.074       .  S
O577        C587   1.280   1_655  A
O577       V1305   1.980       .  S
O578        C588   1.290       .  A
O578        V585   1.987       .  S
O579       C1309   1.262       .  A
O579        V585   1.891       .  S
O580       C1310   1.265       .  A
O580        V585   1.914       .  S
O581        C590   1.237       .  A
O581        V586   1.837       .  S
O582        C589   1.245       .  A
O582        V586   1.794       .  S
O583        C588   1.261       .  A
O583       V1306   1.908       .  S
O584        C587   1.268       .  A
O584        V586   1.969   1_455  S
V585       O1297   1.980       .  S
V585       V1306   2.066       .  T
V586       O1303   1.912       .  S
V586       V1305   2.068       .  T
C589        C715   1.410       .  S
C589       O1299   1.262       .  A
C590        C705   1.468   1_655  S
C590       O1300   1.264       .  A
O591        C601   1.273       .  A
O591        V599   1.951   1_556  S
O592        C602   1.271       .  A
O593        V599   1.885   1_556  S
O594        V599   1.877       .  S
O595        C604   1.252       .  A
O595        V600   1.871       .  S
O596        C603   1.252       .  A
O596        V600   1.832       .  S
O597        C602   1.282       .  A
O597        V600   1.974       .  S
O598        C601   1.291       .  A
C603        C682   1.428       .  S
C604        C695   1.448       .  S
O605        C615   1.269       .  A
O605        V613   1.930   1_565  S
O606        C616   1.270       .  A
O607        C617   1.272       .  A
O607        V613   1.885       .  S
O608        C618   1.260       .  A
O608        V613   1.905   1_565  S
O609        V614   1.850       .  S
O610        V614   1.883       .  S
O611        C616   1.288       .  A
O611        V614   1.987       .  S
O612        C615   1.274       .  A
C617        C665   1.483       .  S
C618        C672   1.485       .  S
O619        C629   1.286       .  A
O619        V627   1.977       .  S
O620        C630   1.270       .  A
O620       V1347   1.935       .  S
O621       C1351   1.252       .  A
O621        V627   1.862       .  S
O622       C1352   1.258   1_455  A
O622        V627   1.820       .  S
O623        C632   1.259       .  A
O623        V628   1.906       .  S
O624        C631   1.270       .  A
O624        V628   1.867       .  S
O625        C630   1.270       .  A
O625        V628   1.899       .  S
O626        C629   1.273       .  A
O626       V1348   1.946   1_455  S
V627       O1340   1.938   1_455  S
V627       V1348   2.072   1_455  T
V628       O1346   1.945       .  S
V628       V1347   2.072       .  T
C631        C702   1.443       .  S
C631       O1341   1.250       .  A
C632        C712   1.450       .  S
C632       O1342   1.258       .  A
O633        C643   1.257       .  A
O633        V641   1.874       .  S
O634        V641   1.857       .  S
O635        C645   1.272       .  A
O636        C646   1.271       .  A
O636        V641   1.932       .  S
O637        C646   1.276       .  A
O638        C645   1.282       .  A
O638        V642   1.972       .  S
O639        C644   1.255       .  A
O639        V642   1.870       .  S
O640        V642   1.867       .  S
C644        C675   1.427       .  S
O647        C657   1.277       .  A
O648        C658   1.276       .  A
O648        V655   1.946       .  S
O649        C659   1.257       .  A
O649        V655   1.877       .  S
O650        C660   1.254       .  A
O650        V655   1.842       .  S
O651        V656   1.870       .  S
O652        V656   1.883       .  S
O653        C658   1.273       .  A
O654        C657   1.273       .  A
O654        V656   1.937       .  S
C659        C692   1.474       .  S
C660        C685   1.419       .  S
C661       Br668   1.922   1_554  S
C662        C663   1.434       .  A
C663       Br670   1.924       .  S
C664        C665   1.398       .  A
C664       Br669   1.910       .  S
C666       Br667   1.888       .  S
C671        C676   1.392       .  A
C671       Br678   1.922       .  S
C672        C673   1.411       .  A
C673        C674   1.415       .  A
C673       Br680   1.901       .  S
C674        C675   1.421       .  A
C674       Br679   1.925       .  S
C676       Br677   1.934       .  S
C681       C1406   1.391   1_455  A
C681       Br688   1.930       .  S
C682        C683   1.410   1_455  A
C683       C1404   1.379       .  A
C683       Br690   1.940   1_655  S
C684       C1403   1.380       .  A
C684        C685   1.407       .  A
C684       Br689   1.942       .  S
C686       C1401   1.391       .  A
C686       Br687   1.922       .  S
C691        C692   1.423       .  A
C691        C696   1.399       .  A
C691       Br698   1.914       .  S
C693        C694   1.405       .  A
C693       Br700   1.929       .  S
C694       Br699   1.918       .  S
C695        C696   1.395       .  A
C696       Br697   1.935       .  S
C701       C1422   1.390       .  A
C701       Br708   1.937       .  S
C702       C1421   1.388       .  A
C702        C703   1.397       .  A
C703       Br710   1.919       .  S
C704       C1425   1.411       .  A
C704       Br709   1.919       .  S
C705       C1424   1.401       .  A
C705        C706   1.432       .  A
C706       Br707   1.973       .  S
C711       C1432   1.412   1_455  A
C711        C716   1.371   1_455  A
C711       Br718   1.930       .  S
C712       C1431   1.415       .  A
C712        C713   1.414       .  A
C713        C714   1.398       .  A
C713       Br720   1.903       .  S
C714       C1435   1.398       .  A
C714       Br719   1.931       .  S
C715       C1434   1.395       .  A
C715        C716   1.406       .  A
C716       Br717   1.955   1_655  S
C721        C722   1.416       .  A
C721        C726   1.432       .  A
C721        C768   1.523       .  S
C722        C723   1.419       .  A
C722        H727   1.083       .  S
C723        C724   1.430       .  A
C723        C826   1.516       .  S
C724        C725   1.416       .  A
C724        H728   1.073       .  S
C725        C726   1.427       .  A
C725        C837   1.544       .  S
C726        H729   1.082       .  S
C730        C731   1.437       .  A
C730        C735   1.438       .  A
C730        C838   1.558       .  S
C731        C732   1.433       .  A
C731        H736   1.077       .  S
C732        C733   1.403       .  A
C732        C795   1.534       .  S
C733        C734   1.417       .  A
C733        H737   1.083       .  S
C734        C735   1.434       .  A
C734        C810   1.526       .  S
C735        H738   1.083       .  S
C739        C740   1.414       .  A
C739        C744   1.438       .  A
C739        C825   1.548       .  S
C740        C741   1.415       .  A
C740        H745   1.066       .  S
C741        C742   1.424       .  A
C741        C809   1.544       .  S
C742        C743   1.426       .  A
C742        H746   1.068       .  S
C743        C744   1.446       .  A
C743        C781   1.562       .  S
C744        H747   1.072       .  S
C748        C749   1.415       .  A
C748        C753   1.404       .  A
C748        C796   1.509       .  S
C749        C750   1.426       .  A
C749        H754   1.080       .  S
C750        C751   1.448       .  A
C750        C767   1.545       .  S
C751        C752   1.442       .  A
C751        H755   1.082       .  S
C752        C753   1.414       .  A
C752        C782   1.543       .  S
C753        H756   1.085       .  S
O757        C767   1.273       .  A
O758        C768   1.285       .  A
O758        V765   1.964       .  S
O759        V765   1.886       .  S
O760        V765   1.928       .  S
O761        C770   1.245       .  A
O761        V766   1.842       .  S
O762        C769   1.244       .  A
O762        V766   1.812       .  S
O763        C768   1.262       .  A
O764        C767   1.279       .  A
O764        V766   1.959       .  S
C769        C895   1.418       .  S
C770        C885   1.472       .  S
O771        C781   1.273       .  A
O771        V779   1.948       .  S
O772        C782   1.272       .  A
O772        V959   1.918       .  S
O773        C963   1.252       .  A
O773        V779   1.861       .  S
O774        C964   1.258       .  A
O774        V779   1.858       .  S
O775        C784   1.258       .  A
O775        V780   1.882       .  S
O776        C783   1.255   1_554  A
O776        V780   1.841       .  S
O777        C782   1.280       .  A
O777        V780   1.972       .  S
O778        C781   1.287       .  A
O778        V960   1.984       .  S
V779        O952   1.918       .  S
V779        V960   2.073       .  T
V780        O958   1.982       .  S
V780        V959   2.073       .  T
C783        C862   1.410       .  S
C783        O953   1.251       .  A
C784        C875   1.445       .  S
C784        O954   1.256       .  A
O785        C795   1.265       .  A
O785        V793   1.924       .  S
O786        C796   1.268       .  A
O786       V1153   1.919       .  S
O787        C797   1.271       .  A
O787        V793   1.875       .  S
O788        C798   1.263       .  A
O788        V793   1.893       .  S
O789       C1158   1.266       .  A
O789        V794   1.851   1_565  S
O790       C1157   1.253       .  A
O790        V794   1.884       .  S
O791        C796   1.274       .  A
O791        V794   1.938       .  S
O792        C795   1.283       .  A
O792       V1154   1.953       .  S
V793       O1146   1.944       .  S
V793       V1154   2.080       .  T
V794       O1152   1.918   1_545  S
V794       V1153   2.080       .  T
C797        C845   1.475       .  S
C797       O1150   1.250       .  A
C798        C852   1.461       .  S
C798       O1149   1.257       .  A
O799        C809   1.283       .  A
O799        V807   1.971       .  S
O800        C810   1.278   1_455  A
O801        V807   1.857       .  S
O802        V807   1.822       .  S
O803        C812   1.250   1_655  A
O803        V808   1.858   1_655  S
O804        C811   1.265       .  A
O804        V808   1.853       .  S
O805        C810   1.269       .  A
O805        V808   1.907   1_655  S
O806        C809   1.271       .  A
C811        C882   1.433       .  S
C812        C892   1.401   1_455  S
O813        C823   1.259       .  A
O813        V821   1.868       .  S
O814       C1184   1.260       .  A
O814        V821   1.861   1_565  S
O815        C825   1.276       .  A
O815       V1181   1.942       .  S
O816        C826   1.266       .  A
O816        V821   1.923       .  S
O817        C826   1.278       .  A
O817       V1182   1.950   1_545  S
O818        C825   1.278       .  A
O818        V822   1.963       .  S
O819        C824   1.257       .  A
O819        V822   1.876       .  S
O820       C1183   1.262       .  A
O820        V822   1.874       .  S
V821       O1175   1.931   1_545  S
V821       V1182   2.086   1_545  T
V822       O1177   1.949       .  S
V822       V1181   2.081       .  T
C823       C1202   1.462       .  S
C823       O1180   1.253   1_545  A
C824        C855   1.453       .  S
C824       O1174   1.258       .  A
O827        C837   1.279       .  A
O827       V1015   1.954       .  S
O828        C838   1.276       .  A
O828        V835   1.957       .  S
O829        C839   1.260       .  A
O829        V835   1.887       .  S
O830        C840   1.259       .  A
O830        V835   1.850   1_556  S
O831       C1020   1.251       .  A
O831        V836   1.854       .  S
O832       C1019   1.260       .  A
O832        V836   1.871       .  S
O833        C838   1.279       .  A
O833       V1016   1.962   1_554  S
O834        C837   1.274       .  A
O834        V836   1.942       .  S
V835       O1007   1.957   1_554  S
V835       V1016   2.081   1_554  T
V836       O1013   1.956       .  S
V836       V1015   2.083       .  T
C839        C872   1.473       .  S
C839       O1012   1.256       .  A
C840        C865   1.418       .  S
C840       O1011   1.249       .  A
C841       C1202   1.414       .  A
C841       C1026   1.403       .  A
C841       Br848   1.922       .  S
C842       C1201   1.418       .  A
C842        C843   1.422       .  A
C842       C1183   1.471       .  S
C843       C1024   1.404       .  A
C843       Br850   1.926       .  S
C844       C1023   1.403       .  A
C844        C845   1.390       .  A
C844       Br849   1.903       .  S
C845       C1206   1.394       .  A
C846       C1021   1.401   1_554  A
C846       C1205   1.401       .  A
C846       Br847   1.892       .  S
C851       C1212   1.395       .  A
C851        C856   1.389       .  A
C851       Br858   1.926       .  S
C852       C1211   1.387       .  A
C852        C853   1.418       .  A
C853        C854   1.415       .  A
C853       Br860   1.914       .  S
C854        C855   1.417       .  A
C854       Br859   1.912       .  S
C855       C1216   1.412       .  A
C856       C1215   1.398       .  A
C856       Br857   1.923       .  S
C861       C1042   1.401       .  A
C861       Br868   1.929       .  S
C862       C1041   1.402       .  A
C862        C863   1.404       .  A
C863       Br870   1.937       .  S
C864        C865   1.407       .  A
C864       Br869   1.944       .  S
C865       C1046   1.406       .  A
C866       C1045   1.408       .  A
C866       Br867   1.932       .  S
C871        C872   1.431       .  A
C871        C876   1.398       .  A
C871       Br878   1.932       .  S
C872       C1053   1.418       .  A
C873       C1052   1.421       .  A
C873        C874   1.407       .  A
C873       Br880   1.927       .  S
C874       C1055   1.398       .  A
C874       Br879   1.917       .  S
C875       C1054   1.401       .  A
C875        C876   1.398       .  A
C876       Br877   1.943       .  S
C881       C1246   1.379       .  A
C881       Br888   1.935       .  S
C882        C883   1.399       .  A
C883       C1244   1.403       .  A
C883       Br890   1.920       .  S
C884       C1243   1.407       .  A
C884       Br889   1.913   1_465  S
C885        C886   1.440   1_545  A
C886       C1241   1.405       .  A
C886       Br887   1.952   1_565  S
C891        C896   1.376       .  A
C891       Br898   1.934       .  S
C892        C893   1.400       .  A
C893        C894   1.388       .  A
C893       Br900   1.925       .  S
C894       Br899   1.929       .  S
C895        C896   1.416       .  A
C896       Br897   1.955       .  S
C901        C902   1.419       .  A
C901        C906   1.432       .  A
C901        C948   1.524       .  S
C902        C903   1.421       .  A
C902        H907   1.083       .  S
C903        C904   1.429       .  A
C903       C1006   1.518       .  S
C904        C905   1.415       .  A
C904        H908   1.072       .  S
C905        C906   1.426       .  A
C905       C1017   1.543       .  S
C906        H909   1.081       .  S
C910        C911   1.433       .  A
C910        C915   1.435       .  A
C910       C1018   1.552       .  S
C911        C912   1.429       .  A
C911        H916   1.076       .  S
C912        C913   1.402       .  A
C912        C975   1.527       .  S
C913        C914   1.415       .  A
C913        H917   1.083       .  S
C914        C915   1.432       .  A
C914        C990   1.521       .  S
C915        H918   1.083       .  S
C919        C920   1.413       .  A
C919        C924   1.437       .  A
C919       C1005   1.546       .  S
C920        C921   1.414       .  A
C920        H925   1.064       .  S
C921        C922   1.426       .  A
C921        C989   1.544       .  S
C922        C923   1.428       .  A
C922        H926   1.069       .  S
C923        C924   1.446       .  A
C923        C961   1.563       .  S
C924        H927   1.073       .  S
C928        C929   1.416       .  A
C928        C933   1.407       .  A
C928        C976   1.514       .  S
C929        C930   1.426       .  A
C929        H934   1.080       .  S
C930        C931   1.448       .  A
C930        C947   1.545       .  S
C931        C932   1.442       .  A
C931        H935   1.082       .  S
C932        C933   1.418       .  A
C932        C962   1.546       .  S
C933        H936   1.084       .  S
O937        C947   1.273       .  A
O938        C948   1.284       .  A
O938        V945   1.962       .  S
O939        V945   1.873       .  S
O940        V945   1.910       .  S
O941        C950   1.245       .  A
O941        V946   1.842       .  S
O942        C949   1.244       .  A
O942        V946   1.809       .  S
O943        C948   1.263       .  A
O944        C947   1.279       .  A
O944        V946   1.959       .  S
C949       C1075   1.417       .  S
C950       C1065   1.474       .  S
O951        C961   1.274   1_554  A
O951        V959   1.950       .  S
O952        C962   1.270       .  A
O953        V959   1.856   1_556  S
O954        V959   1.858       .  S
O955        C964   1.256       .  A
O955        V960   1.879       .  S
O956        C963   1.254       .  A
O956        V960   1.833       .  S
O957        C962   1.282       .  A
O957        V960   1.975       .  S
O958        C961   1.286   1_554  A
C963       C1042   1.408       .  S
C964       C1055   1.445       .  S
O965        C975   1.265       .  A
O965        V973   1.921       .  S
O966        C976   1.269       .  A
O966       V1333   1.923       .  S
O967        C977   1.270       .  A
O967        V973   1.875       .  S
O968        C978   1.262       .  A
O968        V973   1.892       .  S
O969       C1338   1.265       .  A
O969        V974   1.852   1_565  S
O970       C1337   1.252       .  A
O970        V974   1.884       .  S
O971        C976   1.275       .  A
O971        V974   1.941       .  S
O972        C975   1.281       .  A
O972       V1334   1.946       .  S
V973       O1326   1.936       .  S
V973       V1334   2.082       .  T
V974       O1332   1.919   1_545  S
V974       V1333   2.080       .  T
C977       C1025   1.466       .  S
C977       O1330   1.249       .  A
C978       C1032   1.460       .  S
C978       O1329   1.257       .  A
O979        C989   1.284       .  A
O979        V987   1.971       .  S
O980        C990   1.276   1_455  A
O981        V987   1.861       .  S
O982        V987   1.814       .  S
O983        C992   1.252   1_655  A
O983        V988   1.862   1_655  S
O984        C991   1.266       .  A
O984        V988   1.862       .  S
O985        C990   1.269       .  A
O985        V988   1.908   1_655  S
O986        C989   1.271       .  A
C991       C1062   1.434       .  S
C992       C1072   1.402   1_455  S
O993       C1003   1.257       .  A
O993       V1001   1.860       .  S
O994       C1364   1.258       .  A
O994       V1001   1.859   1_565  S
O995       C1005   1.276       .  A
O995       V1361   1.939       .  S
O996       C1006   1.267       .  A
O996       V1001   1.926       .  S
O997       C1006   1.278   1_565  A
O997       V1362   1.952       .  S
O998       C1005   1.278       .  A
O998       V1002   1.962       .  S
O999       C1004   1.257       .  A
O999       V1002   1.875       .  S
O1000      C1363   1.263       .  A
O1000      V1002   1.877       .  S
V1001      O1355   1.933   1_545  S
V1001      V1362   2.084   1_545  T
V1002      O1357   1.946       .  S
V1002      V1361   2.082       .  T
C1003      C1382   1.463       .  S
C1003      O1360   1.255   1_545  A
C1004      C1035   1.452       .  S
C1004      O1354   1.258       .  A
O1007      C1017   1.280       .  A
O1008      C1018   1.276       .  A
O1008      V1015   1.955       .  S
O1009      C1019   1.258       .  A
O1009      V1015   1.878       .  S
O1010      C1020   1.256       .  A
O1010      V1015   1.842       .  S
O1011      V1016   1.844       .  S
O1012      V1016   1.862   1_554  S
O1013      C1018   1.278       .  A
O1014      C1017   1.273       .  A
O1014      V1016   1.941       .  S
C1019      C1052   1.475       .  S
C1020      C1045   1.416       .  S
C1021      C1382   1.418       .  A
C1021     Br1028   1.927       .  S
C1022      C1381   1.421   1_556  A
C1022      C1023   1.426   1_556  A
C1022      C1363   1.472       .  S
C1023     Br1030   1.923   1_554  S
C1024      C1025   1.392       .  A
C1024     Br1029   1.904       .  S
C1025      C1386   1.391       .  A
C1026      C1385   1.402       .  A
C1026     Br1027   1.890       .  S
C1031      C1392   1.394       .  A
C1031      C1036   1.389       .  A
C1031     Br1038   1.925       .  S
C1032      C1391   1.386       .  A
C1032      C1033   1.419       .  A
C1033      C1034   1.418       .  A
C1033     Br1040   1.913       .  S
C1034      C1035   1.418       .  A
C1034     Br1039   1.914       .  S
C1035      C1396   1.409       .  A
C1036      C1395   1.400       .  A
C1036     Br1037   1.924       .  S
C1041     Br1048   1.932       .  S
C1042      C1043   1.405       .  A
C1043     Br1050   1.938       .  S
C1044      C1045   1.408       .  A
C1044     Br1049   1.943       .  S
C1046     Br1047   1.933       .  S
C1051      C1052   1.427       .  A
C1051      C1056   1.399       .  A
C1051     Br1058   1.922       .  S
C1053      C1054   1.408       .  A
C1053     Br1060   1.927       .  S
C1054     Br1059   1.917       .  S
C1055      C1056   1.398       .  A
C1056     Br1057   1.942       .  S
C1061      C1426   1.381       .  A
C1061     Br1068   1.938       .  S
C1062      C1063   1.400       .  A
C1063      C1424   1.398       .  A
C1063     Br1070   1.917       .  S
C1064      C1423   1.406       .  A
C1064     Br1069   1.916   1_465  S
C1065      C1066   1.438   1_545  A
C1066      C1421   1.403       .  A
C1066     Br1067   1.953   1_565  S
C1071      C1076   1.373       .  A
C1071     Br1078   1.936       .  S
C1072      C1073   1.398       .  A
C1073      C1074   1.387       .  A
C1073     Br1080   1.921       .  S
C1074     Br1079   1.931       .  S
C1075      C1076   1.417       .  A
C1076     Br1077   1.958       .  S
C1081      C1082   1.433       .  A
C1081      C1086   1.430       .  A
C1081      C1128   1.543       .  S
C1082      C1083   1.436       .  A
C1082      H1087   1.083       .  S
C1083      C1084   1.427       .  A
C1083      C1186   1.530       .  S
C1084      C1085   1.413       .  A
C1084      H1088   1.079       .  S
C1085      C1086   1.424       .  A
C1085      C1197   1.536       .  S
C1086      H1089   1.082       .  S
C1090      C1091   1.438       .  A
C1090      C1095   1.427       .  A
C1090      C1198   1.539       .  S
C1091      C1092   1.429       .  A
C1091      H1096   1.080       .  S
C1092      C1093   1.401       .  A
C1092      C1155   1.524       .  S
C1093      C1094   1.406       .  A
C1093      H1097   1.084       .  S
C1094      C1095   1.420       .  A
C1094      C1170   1.506       .  S
C1095      H1098   1.083       .  S
C1099      C1100   1.426       .  A
C1099      C1104   1.441       .  A
C1099      C1185   1.545       .  S
C1100      C1101   1.417       .  A
C1100      H1105   1.079       .  S
C1101      C1102   1.435       .  A
C1101      C1169   1.559       .  S
C1102      C1103   1.433       .  A
C1102      H1106   1.063       .  S
C1103      C1104   1.439       .  A
C1103      C1141   1.570       .  S
C1104      H1107   1.075       .  S
C1108      C1109   1.439       .  A
C1108      C1113   1.419       .  A
C1108      C1156   1.567       .  S
C1109      C1110   1.450       .  A
C1109      H1114   1.079       .  S
C1110      C1111   1.440       .  A
C1110      C1127   1.567       .  S
C1111      C1112   1.437       .  A
C1111      H1115   1.083       .  S
C1112      C1113   1.429       .  A
C1112      C1142   1.556       .  S
C1113      H1116   1.073       .  S
O1117      C1127   1.282       .  A
O1118      C1128   1.290       .  A
O1118      V1125   1.987       .  S
O1119      V1125   1.893       .  S
O1120      V1125   1.917       .  S
O1121      C1130   1.241       .  A
O1121      V1126   1.834       .  S
O1122      C1129   1.247       .  A
O1122      V1126   1.802       .  S
O1123      C1128   1.263       .  A
O1124      C1127   1.269       .  A
O1124      V1126   1.960       .  S
C1129      C1255   1.418       .  S
C1130      C1245   1.460       .  S
O1131      C1141   1.273       .  A
O1131      V1139   1.949       .  S
O1132      C1142   1.271       .  A
O1132      V1319   1.933       .  S
O1133      C1323   1.257       .  A
O1133      V1139   1.877       .  S
O1134      C1324   1.262       .  A
O1134      V1139   1.868       .  S
O1135      C1144   1.251       .  A
O1135      V1140   1.867       .  S
O1136      C1143   1.249   1_554  A
O1136      V1140   1.828       .  S
O1137      C1142   1.284       .  A
O1137      V1140   1.978       .  S
O1138      C1141   1.289       .  A
O1138      V1320   1.990       .  S
V1139      O1312   1.935       .  S
V1139      V1320   2.079       .  T
V1140      O1318   1.992       .  S
V1140      V1319   2.077       .  T
C1143      C1222   1.427       .  S
C1143      O1313   1.259       .  A
C1144      C1235   1.446       .  S
C1144      O1314   1.265       .  A
O1145      C1155   1.270       .  A
O1145      V1153   1.933   1_565  S
O1146      C1156   1.271       .  A
O1147      C1157   1.272       .  A
O1147      V1153   1.886       .  S
O1148      C1158   1.261       .  A
O1148      V1153   1.903   1_565  S
O1149      V1154   1.856       .  S
O1150      V1154   1.886       .  S
O1151      C1156   1.289       .  A
O1151      V1154   1.989       .  S
O1152      C1155   1.274       .  A
C1157      C1205   1.484       .  S
C1158      C1212   1.484       .  S
O1159      C1169   1.287       .  A
O1159      V1167   1.980       .  S
O1160      C1170   1.271       .  A
O1161      V1167   1.856       .  S
O1162      V1167   1.813       .  S
O1163      C1172   1.256       .  A
O1163      V1168   1.896       .  S
O1164      C1171   1.269       .  A
O1164      V1168   1.863   1_455  S
O1165      C1170   1.270       .  A
O1165      V1168   1.902       .  S
O1166      C1169   1.272       .  A
C1171      C1242   1.442       .  S
C1172      C1252   1.440       .  S
O1173      C1183   1.258       .  A
O1173      V1181   1.876       .  S
O1174      V1181   1.862       .  S
O1175      C1185   1.272       .  A
O1176      C1186   1.274       .  A
O1176      V1181   1.939       .  S
O1177      C1186   1.275       .  A
O1178      C1185   1.281       .  A
O1178      V1182   1.969       .  S
O1179      C1184   1.252       .  A
O1179      V1182   1.857       .  S
O1180      V1182   1.859       .  S
C1184      C1215   1.428       .  S
O1187      C1197   1.277       .  A
O1187      V1375   1.948       .  S
O1188      C1198   1.277       .  A
O1188      V1195   1.948   1_554  S
O1189      C1199   1.256       .  A
O1189      V1195   1.873   1_554  S
O1190      C1200   1.253       .  A
O1190      V1195   1.842       .  S
O1191      C1380   1.256       .  A
O1191      V1196   1.871       .  S
O1192      C1379   1.264       .  A
O1192      V1196   1.884       .  S
O1193      C1198   1.274   1_556  A
O1193      V1376   1.942       .  S
O1194      C1197   1.273       .  A
O1194      V1196   1.938       .  S
V1195      O1367   1.946       .  S
V1195      V1376   2.085       .  T
V1196      O1373   1.943       .  S
V1196      V1375   2.084       .  T
C1199      C1232   1.472       .  S
C1199      O1372   1.264   1_554  A
C1200      C1225   1.417       .  S
C1200      O1371   1.256       .  A
C1201      C1386   1.405       .  A
C1201     Br1208   1.926       .  S
C1202      C1203   1.440       .  A
C1203      C1384   1.411       .  A
C1203     Br1210   1.925       .  S
C1204      C1383   1.415   1_554  A
C1204      C1205   1.395       .  A
C1204     Br1209   1.908       .  S
C1206      C1381   1.411       .  A
C1206     Br1207   1.888       .  S
C1211      C1216   1.387       .  A
C1211     Br1218   1.919       .  S
C1212      C1213   1.409       .  A
C1213      C1214   1.415       .  A
C1213     Br1220   1.898       .  S
C1214      C1215   1.422       .  A
C1214     Br1219   1.928       .  S
C1216     Br1217   1.924       .  S
C1221      C1402   1.398       .  A
C1221     Br1228   1.932       .  S
C1222      C1401   1.398       .  A
C1222      C1223   1.412       .  A
C1223     Br1230   1.941       .  S
C1224      C1225   1.406       .  A
C1224     Br1229   1.945       .  S
C1225      C1406   1.412       .  A
C1226      C1405   1.412       .  A
C1226     Br1227   1.925       .  S
C1231      C1232   1.423       .  A
C1231      C1236   1.400       .  A
C1231     Br1238   1.915       .  S
C1232      C1413   1.417       .  A
C1233      C1412   1.417       .  A
C1233      C1234   1.406       .  A
C1233     Br1240   1.930       .  S
C1234      C1415   1.404       .  A
C1234     Br1239   1.920       .  S
C1235      C1414   1.401       .  A
C1235      C1236   1.395       .  A
C1236     Br1237   1.934       .  S
C1241     Br1248   1.940       .  S
C1242      C1243   1.398       .  A
C1243     Br1250   1.919       .  S
C1244     Br1249   1.916   1_455  S
C1245      C1246   1.433       .  A
C1246     Br1247   1.966       .  S
C1251      C1256   1.375       .  A
C1251     Br1258   1.927       .  S
C1252      C1253   1.411       .  A
C1253      C1254   1.397       .  A
C1253     Br1260   1.899       .  S
C1254     Br1259   1.929       .  S
C1255      C1256   1.405       .  A
C1256     Br1257   1.954       .  S
C1261      C1262   1.431       .  A
C1261      C1266   1.431       .  A
C1261      C1308   1.542       .  S
C1262      C1263   1.434       .  A
C1262      H1267   1.083       .  S
C1263      C1264   1.426       .  A
C1263      C1366   1.525       .  S
C1264      C1265   1.413       .  A
C1264      H1268   1.081       .  S
C1265      C1266   1.426       .  A
C1265      C1377   1.535       .  S
C1266      H1269   1.081       .  S
C1270      C1271   1.442       .  A
C1270      C1275   1.427       .  A
C1270      C1378   1.540       .  S
C1271      C1272   1.432       .  A
C1271      H1276   1.079       .  S
C1272      C1273   1.401       .  A
C1272      C1335   1.528       .  S
C1273      C1274   1.406       .  A
C1273      H1277   1.084       .  S
C1274      C1275   1.419       .  A
C1274      C1350   1.505       .  S
C1275      H1278   1.083       .  S
C1279      C1280   1.425       .  A
C1279      C1284   1.444       .  A
C1279      C1365   1.553       .  S
C1280      C1281   1.417       .  A
C1280      H1285   1.075       .  S
C1281      C1282   1.431       .  A
C1281      C1349   1.558       .  S
C1282      C1283   1.429       .  A
C1282      H1286   1.063       .  S
C1283      C1284   1.443       .  A
C1283      C1321   1.570       .  S
C1284      H1287   1.074       .  S
C1288      C1289   1.434       .  A
C1288      C1293   1.415       .  A
C1288      C1336   1.555       .  S
C1289      C1290   1.446       .  A
C1289      H1294   1.080       .  S
C1290      C1291   1.442       .  A
C1290      C1307   1.563       .  S
C1291      C1292   1.439       .  A
C1291      H1295   1.082       .  S
C1292      C1293   1.425       .  A
C1292      C1322   1.554       .  S
C1293      H1296   1.074       .  S
O1297      C1307   1.281       .  A
O1298      C1308   1.290       .  A
O1298      V1305   1.987       .  S
O1299      V1305   1.883       .  S
O1300      V1305   1.910       .  S
O1301      C1310   1.240       .  A
O1301      V1306   1.836       .  S
O1302      C1309   1.246       .  A
O1302      V1306   1.799       .  S
O1303      C1308   1.263       .  A
O1304      C1307   1.268       .  A
O1304      V1306   1.958       .  S
C1309      C1435   1.424       .  S
C1310      C1425   1.459       .  S
O1311      C1321   1.272       .  A
O1311      V1319   1.947   1_556  S
O1312      C1322   1.273       .  A
O1313      V1319   1.884   1_556  S
O1314      V1319   1.874       .  S
O1315      C1324   1.253       .  A
O1315      V1320   1.875       .  S
O1316      C1323   1.253       .  A
O1316      V1320   1.834       .  S
O1317      C1322   1.282       .  A
O1317      V1320   1.976       .  S
O1318      C1321   1.290   1_554  A
C1323      C1402   1.428       .  S
C1324      C1415   1.448       .  S
O1325      C1335   1.270       .  A
O1325      V1333   1.937   1_565  S
O1326      C1336   1.269       .  A
O1327      C1337   1.272       .  A
O1327      V1333   1.884       .  S
O1328      C1338   1.261       .  A
O1328      V1333   1.903   1_565  S
O1329      V1334   1.857       .  S
O1330      V1334   1.881       .  S
O1331      C1336   1.287       .  A
O1331      V1334   1.981       .  S
O1332      C1335   1.275       .  A
C1337      C1385   1.485       .  S
C1338      C1392   1.484       .  S
O1339      C1349   1.286       .  A
O1339      V1347   1.975       .  S
O1340      C1350   1.271       .  A
O1341      V1347   1.856       .  S
O1342      V1347   1.822       .  S
O1343      C1352   1.256       .  A
O1343      V1348   1.893       .  S
O1344      C1351   1.269       .  A
O1344      V1348   1.863   1_455  S
O1345      C1350   1.270       .  A
O1345      V1348   1.899       .  S
O1346      C1349   1.272       .  A
C1351      C1422   1.448       .  S
C1352      C1432   1.436       .  S
O1353      C1363   1.258       .  A
O1353      V1361   1.878       .  S
O1354      V1361   1.862       .  S
O1355      C1365   1.273       .  A
O1356      C1366   1.272       .  A
O1356      V1361   1.935       .  S
O1357      C1366   1.274       .  A
O1358      C1365   1.283       .  A
O1358      V1362   1.977       .  S
O1359      C1364   1.255       .  A
O1359      V1362   1.872       .  S
O1360      V1362   1.866       .  S
C1364      C1395   1.436       .  S
O1367      C1377   1.277       .  A
O1368      C1378   1.277       .  A
O1368      V1375   1.949       .  S
O1369      C1379   1.256       .  A
O1369      V1375   1.876       .  S
O1370      C1380   1.254       .  A
O1370      V1375   1.843       .  S
O1371      V1376   1.869       .  S
O1372      V1376   1.884       .  S
O1373      C1378   1.273       .  A
O1374      C1377   1.273       .  A
O1374      V1376   1.939       .  S
C1379      C1412   1.476       .  S
C1380      C1405   1.420       .  S
C1381     Br1388   1.922   1_554  S
C1382      C1383   1.437       .  A
C1383     Br1390   1.925       .  S
C1384      C1385   1.393       .  A
C1384     Br1389   1.909       .  S
C1386     Br1387   1.882       .  S
C1391      C1396   1.388       .  A
C1391     Br1398   1.923       .  S
C1392      C1393   1.410       .  A
C1393      C1394   1.416       .  A
C1393     Br1400   1.899       .  S
C1394      C1395   1.420       .  A
C1394     Br1399   1.927       .  S
C1396     Br1397   1.927       .  S
C1401     Br1408   1.931       .  S
C1402      C1403   1.410       .  A
C1403     Br1410   1.939       .  S
C1404      C1405   1.408       .  A
C1404     Br1409   1.941       .  S
C1406     Br1407   1.925       .  S
C1411      C1412   1.425       .  A
C1411      C1416   1.402       .  A
C1411     Br1418   1.915       .  S
C1413      C1414   1.405       .  A
C1413     Br1420   1.929       .  S
C1414     Br1419   1.920       .  S
C1415      C1416   1.394       .  A
C1416     Br1417   1.935       .  S
C1421     Br1428   1.936       .  S
C1422      C1423   1.396       .  A
C1423     Br1430   1.918       .  S
C1424     Br1429   1.914       .  S
C1425      C1426   1.435       .  A
C1426     Br1427   1.966       .  S
C1431      C1436   1.380       .  A
C1431     Br1438   1.924       .  S
C1432      C1433   1.409       .  A
C1433      C1434   1.393       .  A
C1433     Br1440   1.896       .  S
C1434     Br1439   1.931       .  S
C1435      C1436   1.406       .  A
C1436     Br1437   1.958       .  S
