geometry optimzed in LAMMPS
_audit_creation_date              2020-12-01 
_audit_creation_method            'lammps2cif' 
_symmetry_space_group_name_H-M    'P1' 
_symmetry_Int_Tables_number       1 
_symmetry_cell_setting            triclinic 
loop_ 
_symmetry_equiv_pos_as_xyz 
  x,y,z 
_cell_length_a                    44.04032858 
_cell_length_b                    44.08094394467875 
_cell_length_c                    34.679461040007716 
_cell_angle_alpha                 89.99828199136543 
_cell_angle_beta                  90.0016636190558 
_cell_angle_gamma                 120.70805758683778 
loop_ 
_atom_site_label 
_atom_site_type_symbol 
_atom_site_fract_x 
_atom_site_fract_y 
_atom_site_fract_z 
_atom_site_charge 
Zn1        Zn  0.46384662  0.00046670  0.37596607     1.49700
Zn2        Zn  0.02644620  0.02073238  0.31371379     1.49400
Zn3        Zn  0.99724668  0.45724034  0.37521738     1.49100
Zn4        Zn  0.44999603  0.45317022  0.30235188     1.49500
O5          O  0.98526691  0.98337125  0.34045163    -1.80000
O6          O  0.97570766  0.04691180  0.35845150    -0.70600
O7          O  0.07007168  0.01388862  0.32710005    -0.70400
O8          O  0.00195790  0.47033572  0.43070453    -0.70000
O9          O  0.02453617  0.06745812  0.32269017    -0.70600
O10         O  0.47846036  0.00313098  0.43087064    -0.70200
O11         O  0.04320224  0.96311965  0.35981439    -0.70800
O12         O  0.45335822  0.40731837  0.30443571    -0.70200
O13         O  0.01976634  0.01361065  0.25514635    -0.71000
O14         O  0.46587906  0.40663811  0.36618369    -0.70400
O15         O  0.46554194  0.47024986  0.24733513    -0.70800
O16         O  0.40651517  0.46042025  0.31132059    -0.70700
O17         O  0.41355683  0.47743355  0.37259366    -0.70500
C18         C  0.99979833  0.07086611  0.33819402     0.81300
C19         C  0.07006319  0.98726481  0.34274591     0.81800
C20         C  0.99531102  0.49134957  0.44850949     0.80700
C21         C  0.46316151  0.39506336  0.33223222     0.81100
C22         C  0.49766933  0.99643668  0.23470002     0.82200
C23         C  0.39776181  0.47217781  0.34062150     0.81300
Zn24       Zn  0.02392154  0.22710269  0.29386188     1.49700
Zn25       Zn  0.47394202  0.25565196  0.28903226     1.49400
Zn26       Zn  0.46768754  0.21055542  0.36272627     1.49100
Zn27       Zn  0.03420906  0.28582890  0.35668549     1.49500
O28         O  0.50101340  0.24565342  0.32617999    -1.80000
O29         O  0.02330159  0.23427851  0.23678446    -0.70600
O30         O  0.42258599  0.22885191  0.29998406    -0.70400
O31         O  0.46736781  0.16316585  0.35423087    -0.70000
O32         O  0.48327077  0.25133537  0.23306914    -0.70600
O33         O  0.50603730  0.17777954  0.30598374    -0.70200
O34         O  0.42434574  0.21762049  0.36189773    -0.70800
O35         O  0.02277291  0.27575600  0.41388271    -0.70200
O36         O  0.98396231  0.30423308  0.29843789    -0.71000
O37         O  0.48381137  0.22424109  0.41783930    -0.70400
O38         O  0.02432456  0.32734589  0.34521718    -0.70800
O39         O  0.08438386  0.29002752  0.35257427    -0.70700
O40         O  0.07214951  0.24649110  0.31126761    -0.70500
C41         C  0.50369336  0.24274711  0.21698508     0.81300
C42         C  0.41203357  0.22744259  0.33432083     0.81800
C43         C  0.48640002  0.15643370  0.33168832     0.80700
C44         C  0.50561066  0.25369792  0.43310076     0.81100
C45         C  0.00165448  0.32840212  0.32261477     0.82200
C46         C  0.09274343  0.26958476  0.33496441     0.81300
Zn47       Zn  0.26841013  0.48243657  0.30274561     1.49700
Zn48       Zn  0.22739283  0.01779024  0.30379344     1.49400
Zn49       Zn  0.21288043  0.46090384  0.37339864     1.49100
Zn50       Zn  0.28689599  0.03753918  0.36939022     1.49500
O51         O  0.24894115  0.00005352  0.33818545    -1.80000
O52         O  0.25255989  0.47760285  0.24743445    -0.70600
O53         O  0.17628475  0.49630795  0.31774658    -0.70400
O54         O  0.22324164  0.41896315  0.36884923    -0.70000
O55         O  0.23287498  0.01330050  0.24721222    -0.70600
O56         O  0.26386883  0.43861657  0.32222413    -0.70200
O57         O  0.16297505  0.45614260  0.36393836    -0.70800
O58         O  0.27628578  0.02805313  0.42699746    -0.70200
O59         O  0.24280881  0.06635759  0.31627872    -0.71000
O60         O  0.22363633  0.47518920  0.43024985    -0.70400
O61         O  0.28628943  0.08476884  0.35943452    -0.70800
O62         O  0.32962530  0.02930065  0.36147087    -0.70700
O63         O  0.32184840  0.01496985  0.29982503    -0.70500
C64         C  0.24211973  0.99451495  0.22876126     0.81300
C65         C  0.15491641  0.47457195  0.34195475     0.81800
C66         C  0.24669099  0.41682203  0.34876791     0.80700
C67         C  0.25151233  0.00283850  0.44601777     0.81100
C68         C  0.26447517  0.08950223  0.33925315     0.82200
C69         C  0.33734438  0.01766082  0.33141467     0.81300
Zn70       Zn  0.28282369  0.24269754  0.29640061     1.49700
Zn71       Zn  0.29665081  0.29023584  0.37162579     1.49400
Zn72       Zn  0.24874003  0.28720875  0.30052815     1.49100
Zn73       Zn  0.22095497  0.22153796  0.36075872     1.49500
O74         O  0.26178281  0.25982670  0.33326835    -1.80000
O75         O  0.33437161  0.26454501  0.30424955    -0.70600
O76         O  0.29372562  0.33611611  0.37206501    -0.70400
O77         O  0.24752026  0.27816484  0.24272482    -0.70000
O78         O  0.34009958  0.28340618  0.36491024    -0.70600
O79         O  0.27187027  0.24494297  0.23970714    -0.70200
O80         O  0.27881054  0.33813074  0.31133867    -0.70800
O81         O  0.17733328  0.22864131  0.35199715    -0.70200
O82         O  0.28118864  0.27254897  0.42605231    -0.71000
O83         O  0.20216513  0.27827579  0.31725933    -0.70400
O84         O  0.22719021  0.22652386  0.41913386    -0.70800
O85         O  0.22293153  0.17519204  0.35173205    -0.70700
O86         O  0.26849158  0.19436305  0.31114394    -0.70500
C87         C  0.34934897  0.27077942  0.33694955     0.81300
C88         C  0.28337513  0.34925404  0.34579784     0.81800
C89         C  0.25787192  0.26064103  0.22326955     0.80700
C90         C  0.17672365  0.25513082  0.33711590     0.81100
C91         C  0.25289408  0.24759785  0.44043171     0.82200
C92         C  0.24635972  0.17124528  0.33394551     0.81300
Zn93       Zn  0.47137665  0.50256474  0.97176080     1.49700
Zn94       Zn  0.04217679  0.00082135  0.97020187     1.49400
Zn95       Zn  0.02896762  0.03950093  0.04139674     1.49100
Zn96       Zn  0.48808288  0.46048437  0.03907267     1.49500
O97         O  0.51188154  0.00170792  0.00605673    -1.80000
O98         O  0.47874186  0.49753528  0.91428649    -0.70600
O99         O  0.08634470  0.05132734  0.97794645    -0.70400
O100        O  0.02581749  0.07971755  0.02056971    -0.70000
O101        O  0.02988757  0.00089590  0.91348316    -0.70600
O102        O  0.48687420  0.05674958  0.97791974    -0.70200
O103        O  0.08010041  0.05781571  0.04011898    -0.70800
O104        O  0.49426393  0.47155403  0.09654730    -0.70200
O105        O  0.04289851  0.45236367  0.97566590    -0.71000
O106        O  0.01362724  0.02851136  0.09785237    -0.70400
O107        O  0.50253623  0.42669968  0.02395737    -0.70800
O108        O  0.43778080  0.43066214  0.02876679    -0.70700
O109        O  0.42241850  0.45702632  0.98420003    -0.70500
C110        C  0.50930127  0.00138284  0.89736768     0.81300
C111        C  0.09480829  0.07079093  0.00810564     0.81800
C112        C  0.51168790  0.08390942  0.99533377     0.80700
C113        C  0.50732671  0.00202561  0.11670680     0.81100
C114        C  0.02466450  0.42662602  0.99894063     0.82200
C115        C  0.41536556  0.43050157  0.00589208     0.81300
Zn116      Zn  0.46577386  0.24767755  0.95683615     1.49700
Zn117      Zn  0.48440414  0.20877893  0.02362896     1.49400
Zn118      Zn  0.04136778  0.25540390  0.95928049     1.49100
Zn119      Zn  0.01752784  0.28860647  0.02783301     1.49500
O120        O  0.00195996  0.24977852  0.99159701    -1.80000
O121        O  0.41765209  0.20062215  0.96799583    -0.70600
O122        O  0.50433998  0.18031050  0.00866534    -0.70400
O123        O  0.02743394  0.25077807  0.90302990    -0.70000
O124        O  0.43481501  0.17619696  0.01287199    -0.70600
O125        O  0.47670928  0.24426232  0.90082170    -0.70200
O126        O  0.04720815  0.21103591  0.96751297    -0.70800
O127        O  0.06207875  0.32859177  0.00954877    -0.70200
O128        O  0.49147671  0.21802838  0.08064016    -0.77000
O129        O  0.08269378  0.30848935  0.96350253    -0.70400
O130        O  0.02093432  0.27740318  0.08328660    -0.70800
O131        O  0.98684269  0.30902956  0.02510075    -0.70700
O132        O  0.47378208  0.29868888  0.95998868    -0.70500
C133        C  0.41183375  0.17456479  0.98981025     0.81300
C134        C  0.02672882  0.18272654  0.98655527     0.81800
C135        C  0.00008552  0.24610407  0.88533341     0.80700
C136        C  0.08429689  0.33388825  0.98342014     0.81100
C137        C  0.00755396  0.24770337  0.10003849     0.82200
C138        C  0.48370182  0.31934107  0.98915155     0.81300
Zn139      Zn  0.27382420  0.99866125  0.98115372     1.49700
Zn140      Zn  0.20359386  0.46566649  0.03804515     1.49400
Zn141      Zn  0.25648083  0.04254587  0.04066247     1.49100
Zn142      Zn  0.21073096  0.51137870  0.96580301     1.49500
O143        O  0.23708438  0.00454553  0.00458393    -1.80000
O144        O  0.26258868  0.44733997  0.99892803    -0.70600
O145        O  0.20959413  0.47364839  0.09518105    -0.70400
O146        O  0.30397294  0.07707097  0.02326616    -0.70000
O147        O  0.21029769  0.42627907  0.02822478    -0.70600
O148        O  0.32161346  0.04684405  0.98752495    -0.70200
O149        O  0.25656656  0.02832727  0.09590495    -0.70800
O150        O  0.21312626  0.05809467  0.97568698    -0.70200
O151        O  0.15452702  0.44771363  0.02161270    -0.71000
O152        O  0.23341146  0.07040959  0.03624797    -0.70400
O153        O  0.16501839  0.46265397  0.96010746    -0.70800
O154        O  0.23339005  0.51715093  0.91341481    -0.70700
O155        O  0.26943789  0.99647856  0.92285287    -0.70500
C156        C  0.23412615  0.42190280  0.01384527     0.81300
C157        C  0.23553759  0.99919006  0.11229545     0.81800
C158        C  0.32653972  0.07597181  0.00173874     0.80700
C159        C  0.22434266  0.07862298  0.00506676     0.81100
C160        C  0.14814723  0.43971159  0.98626170     0.82200
C161        C  0.25401572  0.00689977  0.90003659     0.81300
Zn162      Zn  0.27715902  0.25603235  0.02582424     1.49700
Zn163      Zn  0.20240584  0.25127212  0.03554033     1.49400
Zn164      Zn  0.25473165  0.29595900  0.96485196     1.49100
Zn165      Zn  0.21401975  0.21743117  0.96242614     1.49500
O166        O  0.23804638  0.25599476  0.99859823    -1.80000
O167        O  0.27056924  0.25638041  0.08417370    -0.70600
O168        O  0.19824364  0.29592510  0.02891122    -0.70400
O169        O  0.30301791  0.33127021  0.97846859    -0.70000
O170        O  0.21953238  0.25462156  0.09071683    -0.70600
O171        O  0.32388610  0.30454983  0.01523435    -0.70200
O172        O  0.23094869  0.32151677  0.97627946    -0.70800
O173        O  0.22627091  0.22870560  0.90714323    -0.70200
O174        O  0.16107307  0.19892874  0.03069501    -0.71000
O175        O  0.25396052  0.28699575  0.90788403    -0.70400
O176        O  0.16223453  0.19190508  0.96776904    -0.70800
O177        O  0.22506292  0.18186030  0.97655025    -0.70700
O178        O  0.27256007  0.20714005  0.01480009    -0.70500
C179        C  0.24675030  0.25606175  0.10530777     0.81300
C180        C  0.21326487  0.32163825  0.00491126     0.81800
C181        C  0.32753985  0.33212435  0.99814249     0.80700
C182        C  0.24191319  0.25806919  0.88983517     0.81100
C183        C  0.15044317  0.17914572  0.00079834     0.82200
C184        C  0.24791781  0.18024094  0.99693098     0.81300
Zn185      Zn  0.46342782  0.45910035  0.63450990     1.49700
Zn186      Zn  0.00781628  0.02542621  0.69723963     1.49400
Zn187      Zn  0.49834251  0.44767190  0.70698226     1.49100
Zn188      Zn  0.04487667  0.99877447  0.63612703     1.49500
O189        O  0.00579754  0.98541643  0.67094147    -1.80000
O190        O  0.42669177  0.46816161  0.65007954    -0.70600
O191        O  0.00664462  0.01879882  0.75610972    -0.70400
O192        O  0.44683913  0.40473317  0.70044103    -0.70000
O193        O  0.45597619  0.02618946  0.68955763    -0.70600
O194        O  0.44143082  0.40770748  0.63748263    -0.70200
O195        O  0.49969816  0.46398527  0.76222286    -0.70800
O196        O  0.06233901  0.96612581  0.64218509    -0.70200
O197        O  0.05876596  0.06945535  0.68572482    -0.71000
O198        O  0.05032880  0.45442526  0.70445208    -0.70400
O199        O  0.08391475  0.04475056  0.65206965    -0.70800
O200        O  0.03571508  0.00232735  0.58006359    -0.70700
O201        O  0.47386534  0.47330946  0.57970802    -0.70500
C202        C  0.42857224  0.00254347  0.67126815     0.81300
C203        C  0.00326728  0.99371095  0.77750290     0.81800
C204        C  0.42792817  0.39463217  0.66983955     0.80700
C205        C  0.07131842  0.46406704  0.67551536     0.81100
C206        C  0.08603263  0.07057111  0.67040125     0.82200
C207        C  0.00675717  0.99293092  0.56307916     0.81300
Zn208      Zn  0.03982303  0.27425333  0.69383125     1.49700
Zn209      Zn  0.00395004  0.29142015  0.62436421     1.49400
Zn210      Zn  0.50266811  0.22743181  0.62852318     1.49100
Zn211      Zn  0.46686439  0.25230277  0.69316719     1.49500
O212        O  0.50561415  0.26676947  0.65788582    -1.80000
O213        O  0.06718803  0.32623658  0.69143290    -0.70600
O214        O  0.00290708  0.27844824  0.56785838    -0.70400
O215        O  0.04784496  0.21922219  0.63212140    -0.70000
O216        O  0.05532770  0.33430228  0.63133568    -0.70600
O217        O  0.07479738  0.26346115  0.67425696    -0.70200
O218        O  0.50244509  0.23548201  0.57104937    -0.70800
O219        O  0.42814023  0.20670065  0.67549576    -0.70200
O220        O  0.46107515  0.30095151  0.62775631    -0.71000
O221        O  0.45200793  0.18311941  0.63796315    -0.70400
O222        O  0.44681195  0.28305402  0.68850087    -0.70800
O223        O  0.47693237  0.24790255  0.74922520    -0.70700
O224        O  0.02866503  0.26018081  0.74982311    -0.70500
C225        C  0.07682730  0.34270423  0.65968850     0.81300
C226        C  0.50574763  0.26107379  0.55091334     0.81800
C227        C  0.07567653  0.24261957  0.64985297     0.80700
C228        C  0.42518769  0.18189383  0.65444367     0.81100
C229        C  0.43896701  0.28988929  0.65575749     0.82200
C230        C  0.50575805  0.25677944  0.76644075     0.81300
Zn231      Zn  0.21892241  0.46956978  0.71113022     1.49700
Zn232      Zn  0.25084446  0.03957532  0.63993207     1.49400
Zn233      Zn  0.29814740  0.03188363  0.70647511     1.49100
Zn234      Zn  0.25729833  0.46422061  0.63709970     1.49500
O235        O  0.25605840  0.49699153  0.67391013    -1.80000
O236        O  0.18186745  0.48019082  0.70247602    -0.70600
O237        O  0.29671067  0.08951892  0.64332615    -0.70400
O238        O  0.28875086  0.03080969  0.76407341    -0.70000
O239        O  0.19939445  0.02785044  0.65173547    -0.70600
O240        O  0.23202748  0.47859579  0.76746616    -0.70200
O241        O  0.32782239  0.07980464  0.68736820    -0.70800
O242        O  0.30308779  0.46255389  0.64857290    -0.70200
O243        O  0.24945987  0.02705886  0.58295730    -0.71000
O244        O  0.32957999  0.01338307  0.69814671    -0.70400
O245        O  0.26101125  0.48087501  0.58150851    -0.70800
O246        O  0.20622946  0.42094230  0.63775621    -0.70700
O247        O  0.19236505  0.41838648  0.69956694    -0.70500
C248        C  0.18102777  0.01552212  0.68254871     0.81300
C249        C  0.32556535  0.09888017  0.66163117     0.81800
C250        C  0.26042628  0.50136294  0.78383979     0.80700
C251        C  0.32756642  0.47920432  0.67374834     0.81100
C252        C  0.25240133  0.50165150  0.56615084     0.82200
C253        C  0.18366272  0.40792891  0.66509572     0.81300
Zn254      Zn  0.25464888  0.21501681  0.63656202     1.49700
Zn255      Zn  0.21040120  0.23294600  0.69837436     1.49400
Zn256      Zn  0.28798352  0.27437205  0.70195081     1.49100
Zn257      Zn  0.25216345  0.28645301  0.62936014     1.49500
O258        O  0.25025884  0.25088738  0.66484667    -1.80000
O259        O  0.21059498  0.16581597  0.65214561    -0.70600
O260        O  0.22077208  0.24697661  0.75417712    -0.70400
O261        O  0.32926648  0.27268759  0.68386412    -0.70000
O262        O  0.18321062  0.18180238  0.69478444    -0.70600
O263        O  0.30790560  0.22835448  0.64149770    -0.70200
O264        O  0.27635857  0.25983068  0.75706035    -0.70800
O265        O  0.30239322  0.33049537  0.63795018    -0.70200
O266        O  0.17642347  0.24433188  0.67748940    -0.71000
O267        O  0.30400946  0.32478002  0.70088803    -0.70400
O268        O  0.20407231  0.28541134  0.63224094    -0.70800
O269        O  0.25264410  0.27185887  0.57416850    -0.70700
O270        O  0.24929742  0.21992686  0.57856206    -0.70500
C271        C  0.18420100  0.15867842  0.67417755     0.81300
C272        C  0.24816408  0.25413519  0.77343297     0.81800
C273        C  0.33390165  0.25421159  0.65927702     0.80700
C274        C  0.31952380  0.33925309  0.66975429     0.81100
C275        C  0.17609838  0.26390650  0.65108822     0.82200
C276        C  0.25035377  0.24468506  0.55849838     0.81300
C277        C  0.35854589  0.13013890  0.65187255    -0.09100
C278        C  0.38959982  0.15253589  0.64970703    -0.10700
C279        C  0.14636994  0.38470482  0.65696411    -0.09100
C280        C  0.11426766  0.36784569  0.65527936    -0.10700
C281        C  0.40232106  0.27924146  0.64984202    -0.09100
C282        C  0.37036696  0.26535526  0.65106130    -0.10700
C283        C  0.11040362  0.24840312  0.64189498    -0.09100
C284        C  0.14170766  0.25852043  0.64211110    -0.10700
C285        C  0.38974522  0.37348424  0.67176002    -0.09100
C286        C  0.35779774  0.35973179  0.67016764    -0.10700
C287        C  0.12118845  0.10108506  0.67354497    -0.09100
C288        C  0.15177513  0.12494618  0.67363234    -0.10700
C289        C  0.39438162  0.99938094  0.67450544    -0.09100
C290        C  0.36097991  0.48090781  0.67148234    -0.10700
C291        C  0.14289064  0.99895392  0.68166859    -0.09100
C292        C  0.10863424  0.47810070  0.68066684    -0.10700
C293        C  0.24567668  0.25818043  0.84893547    -0.09100
C294        C  0.24731757  0.25639993  0.81446406    -0.10700
C295        C  0.22625836  0.38605194  0.01342170    -0.09100
C296        C  0.21587948  0.35488226  0.01192340    -0.10700
C297        C  0.23206386  0.11432226  0.00210007    -0.09100
C298        C  0.24276637  0.14556666  0.00080613    -0.10700
C299        C  0.26017711  0.00773918  0.85916624    -0.09100
C300        C  0.26084072  0.50467122  0.82524201    -0.10700
C301        C  0.37982350  0.14050671  0.98797990    -0.09100
C302        C  0.35692736  0.10982000  0.99211447    -0.10700
C303        C  0.12623142  0.40267994  0.97663939    -0.09100
C304        C  0.10978024  0.37061668  0.97584209    -0.10700
C305        C  0.50534110  0.25093906  0.80740688    -0.09100
C306        C  0.50473040  0.24824634  0.84216340    -0.10700
C307        C  0.35902845  0.36648405  0.00168960    -0.09100
C308        C  0.38272554  0.39709321  0.00289396    -0.10700
C309        C  0.11585462  0.10898850  0.00520842    -0.09100
C310        C  0.12973172  0.14098194  0.00433204    -0.10700
C311        C  0.01555067  0.39073027  0.99024817    -0.09100
C312        C  0.49804619  0.35710298  0.98483329    -0.10700
C313        C  0.02638268  0.14997421  0.98198545    -0.09100
C314        C  0.52023999  0.11948835  0.98573078    -0.10700
C315        C  0.50785356  0.00056290  0.85541485    -0.09100
C316        C  0.50648606  0.99941086  0.82032761    -0.10700
C317        C  0.25007987  0.24351631  0.48189469    -0.09100
C318        C  0.24943701  0.24249303  0.51685799    -0.10700
C319        C  0.25384532  0.25872000  0.18171390    -0.09100
C320        C  0.25067110  0.25741851  0.14686592    -0.10700
C321        C  0.25066075  0.50295119  0.52437841    -0.09100
C322        C  0.24927841  0.50286656  0.48935217    -0.10700
C323        C  0.25701172  0.39093642  0.35626771    -0.09100
C324        C  0.27120020  0.37338975  0.35525075    -0.10700
C325        C  0.26073693  0.12013183  0.34313038    -0.09100
C326        C  0.25132776  0.14167914  0.34113087    -0.10700
C327        C  0.23799307  0.99576069  0.15306370    -0.09100
C328        C  0.23974165  0.99372270  0.18757043    -0.10700
C329        C  0.50668650  0.25678827  0.47459405    -0.09100
C330        C  0.50635654  0.25889934  0.50940706    -0.10700
C331        C  0.37369210  0.25809412  0.34278284    -0.09100
C332        C  0.38973862  0.24229755  0.34194331    -0.10700
C333        C  0.12482537  0.26908899  0.34256163    -0.09100
C334        C  0.14745471  0.26101719  0.34278150    -0.10700
C335        C  0.50698761  0.24525270  0.14092335    -0.09100
C336        C  0.50625162  0.24390255  0.17566572    -0.10700
C337        C  0.00320280  0.49706989  0.48863377    -0.09100
C338        C  0.00761411  0.49822709  0.52286824    -0.10700
C339        C  0.47732705  0.37222082  0.32512191    -0.09100
C340        C  0.99157867  0.35494541  0.32607269    -0.10700
C341        C  0.99637403  0.10141816  0.33259774    -0.09100
C342        C  0.48981139  0.12581552  0.33661381    -0.10700
C343        C  0.35911107  0.00156593  0.33384718    -0.09100
C344        C  0.37361297  0.48542965  0.33709779    -0.10700
C345        C  0.10033452  0.98250141  0.34170791    -0.09100
C346        C  0.12256393  0.47513553  0.34552598    -0.10700
C347        C  0.50452807  0.00169671  0.15835812    -0.09100
C348        C  0.50191786  0.00018220  0.19322397    -0.10700
Zn349      Zn  0.46546988  0.50245394  0.37478723     1.49700
Zn350      Zn  0.02797658  0.52295769  0.31623643     1.49400
Zn351      Zn  0.99770461  0.95700297  0.37480768     1.49100
Zn352      Zn  0.45156052  0.95353891  0.30244808     1.49500
O353        O  0.98608314  0.48483744  0.34126464    -1.80000
O354        O  0.97663504  0.54868391  0.36009642    -0.70600
O355        O  0.07105914  0.51592551  0.33081278    -0.70400
O356        O  0.00255427  0.97068113  0.43017113    -0.70000
O357        O  0.02609219  0.56963790  0.32546411    -0.70600
O358        O  0.48072045  0.50632485  0.42965717    -0.70200
O359        O  0.04277738  0.46384884  0.36092668    -0.70800
O360        O  0.45462023  0.90766421  0.30514285    -0.70200
O361        O  0.02320789  0.51701253  0.25745872    -0.71000
O362        O  0.46620802  0.90714327  0.36719647    -0.70400
O363        O  0.46897042  0.97124414  0.24827457    -0.70800
O364        O  0.40787767  0.96049160  0.30950997    -0.70700
O365        O  0.41196352  0.97447696  0.37157376    -0.70500
C366        C  0.00112599  0.57292373  0.34048053     0.81300
C367        C  0.07023015  0.48855305  0.34541870     0.81800
C368        C  0.99525002  0.99128154  0.44784346     0.80700
C369        C  0.46389618  0.89541211  0.33339053     0.81100
C370        C  0.49449965  0.49413024  0.23271286     0.82200
C371        C  0.39783823  0.97099036  0.33880752     0.81300
Zn372      Zn  0.02332069  0.72838664  0.29320360     1.49700
Zn373      Zn  0.47351547  0.75610014  0.28845014     1.49400
Zn374      Zn  0.46715501  0.70899825  0.36047538     1.49100
Zn375      Zn  0.03476979  0.78669492  0.35711184     1.49500
O376        O  0.50025507  0.74515293  0.32484587    -1.80000
O377        O  0.02122037  0.73536334  0.23620369    -0.70600
O378        O  0.42218813  0.72835158  0.29837748    -0.70400
O379        O  0.46803778  0.66232233  0.34996296    -0.70000
O380        O  0.48315652  0.75336561  0.23240214    -0.70600
O381        O  0.50515420  0.67771909  0.30009462    -0.70200
O382        O  0.42321167  0.71525241  0.35981835    -0.70800
O383        O  0.02408646  0.77659590  0.41446538    -0.70200
O384        O  0.98390065  0.80514326  0.30078404    -0.71000
O385        O  0.48287981  0.72187859  0.41611066    -0.70400
O386        O  0.02571935  0.82864760  0.34608650    -0.70800
O387        O  0.08452263  0.79047701  0.35206922    -0.70700
O388        O  0.07206551  0.74802906  0.30915621    -0.70500
C389        C  0.50397313  0.74551644  0.21597844     0.81300
C390        C  0.41108367  0.72570428  0.33262969     0.81800
C391        C  0.48646557  0.65601036  0.32599540     0.80700
C392        C  0.50427645  0.75121685  0.43197118     0.81100
C393        C  0.00253226  0.82957330  0.32428267     0.82200
C394        C  0.09275984  0.77049487  0.33332981     0.81300
Zn395      Zn  0.27034200  0.98315134  0.30118650     1.49700
Zn396      Zn  0.22567041  0.51744402  0.30574114     1.49400
Zn397      Zn  0.21470948  0.96202527  0.37207263     1.49100
Zn398      Zn  0.28465702  0.53692459  0.37129500     1.49500
O399        O  0.24710261  0.49936204  0.33984235    -1.80000
O400        O  0.25401185  0.97729139  0.24594132    -0.70600
O401        O  0.17754607  0.99640921  0.31499411    -0.70400
O402        O  0.22515725  0.92018941  0.36777749    -0.70000
O403        O  0.23035444  0.51269294  0.24909197    -0.70600
O404        O  0.26639473  0.94002343  0.32174159    -0.70200
O405        O  0.16462403  0.95727393  0.36225213    -0.70800
O406        O  0.27332584  0.52728927  0.42870167    -0.70200
O407        O  0.24097669  0.56604987  0.31795345    -0.71000
O408        O  0.22605038  0.97646520  0.42899511    -0.70400
O409        O  0.28407576  0.58426414  0.36147976    -0.70800
O410        O  0.32754420  0.52875820  0.36371975    -0.70700
O411        O  0.31999545  0.51379451  0.30216306    -0.70500
C412        C  0.24007660  0.49438509  0.23046727     0.81300
C413        C  0.15622592  0.97502217  0.33953818     0.81800
C414        C  0.24904084  0.91830431  0.34827152     0.80700
C415        C  0.24855932  0.50184095  0.44745880     0.81100
C416        C  0.26246250  0.58912925  0.34108562     0.82200
C417        C  0.33547407  0.51697187  0.33390228     0.81300
Zn418      Zn  0.28203495  0.74222076  0.29526682     1.49700
Zn419      Zn  0.29745822  0.79079917  0.36971412     1.49400
Zn420      Zn  0.24889548  0.78788851  0.29916915     1.49100
Zn421      Zn  0.22096198  0.72281420  0.35994934     1.49500
O422        O  0.26187193  0.76048796  0.33189735    -1.80000
O423        O  0.33348033  0.76290414  0.30302294    -0.70600
O424        O  0.29591333  0.83732856  0.37025320    -0.70400
O425        O  0.24873687  0.77965051  0.24141927    -0.70000
O426        O  0.34000603  0.78253462  0.36340736    -0.70600
O427        O  0.27157103  0.74505537  0.23848399    -0.70200
O428        O  0.27830561  0.83868125  0.31050213    -0.70800
O429        O  0.17727125  0.72946171  0.35072259    -0.70200
O430        O  0.28206521  0.77417350  0.42423361    -0.71000
O431        O  0.20194167  0.77853646  0.31509675    -0.70400
O432        O  0.22740643  0.72912330  0.41803685    -0.70800
O433        O  0.22235266  0.67611018  0.35237646    -0.70700
O434        O  0.26679501  0.69365002  0.31054201    -0.70500
C435        C  0.34862142  0.76918304  0.33562802     0.81300
C436        C  0.28471464  0.85033121  0.34476190     0.81800
C437        C  0.25861394  0.76172779  0.22199439     0.80700
C438        C  0.17653761  0.75562160  0.33517996     0.81100
C439        C  0.25343909  0.75012310  0.43896414     0.82200
C440        C  0.24505457  0.67128693  0.33426286     0.81300
Zn441      Zn  0.47664896  0.00464690  0.97404536     1.49700
Zn442      Zn  0.04735115  0.50206875  0.97051150     1.49400
Zn443      Zn  0.03596808  0.54245907  0.04177344     1.49100
Zn444      Zn  0.49265273  0.96230552  0.04166182     1.49500
O445        O  0.50689474  0.49995570  0.00375564    -1.80000
O446        O  0.48432854  0.00082528  0.91642521    -0.70600
O447        O  0.09199184  0.55237729  0.97667969    -0.70400
O448        O  0.03112733  0.58176273  0.02101102    -0.70000
O449        O  0.03420906  0.50208202  0.91398711    -0.70600
O450        O  0.48187238  0.55500061  0.97469575    -0.70200
O451        O  0.08723896  0.56161260  0.03856872    -0.70800
O452        O  0.49872317  0.97342810  0.09909512    -0.70200
O453        O  0.03865107  0.95147534  0.97501206    -0.71000
O454        O  0.02177711  0.53238095  0.09881192    -0.70400
O455        O  0.50655935  0.92799017  0.02718302    -0.70800
O456        O  0.44234089  0.93257089  0.03098713    -0.70700
O457        O  0.42781872  0.95883999  0.98544321    -0.70500
C458        C  0.50385462  0.49807404  0.89550440     0.81300
C459        C  0.10124306  0.57305581  0.00587254     0.81800
C460        C  0.50651033  0.58221354  0.99227046     0.80700
C461        C  0.50250093  0.49998116  0.11435308     0.81100
C462        C  0.01855270  0.92473188  0.99632685     0.82200
C463        C  0.42042038  0.93231563  0.00726614     0.81300
Zn464      Zn  0.46223211  0.74697288  0.95847107     1.49700
Zn465      Zn  0.48301553  0.70903160  0.02433165     1.49400
Zn466      Zn  0.04188992  0.75565753  0.95993881     1.49100
Zn467      Zn  0.01547948  0.78847945  0.02706200     1.49500
O468        O  0.00171227  0.74964937  0.99119352    -1.80000
O469        O  0.41484896  0.69969572  0.97062384    -0.70600
O470        O  0.50228888  0.68010832  0.00871456    -0.70400
O471        O  0.02964378  0.75229856  0.90308105    -0.70000
O472        O  0.43343402  0.67597340  0.01479890    -0.70600
O473        O  0.47174633  0.74261500  0.90230769    -0.70200
O474        O  0.04756352  0.71115598  0.96832652    -0.70800
O475        O  0.06054587  0.82843252  0.01002340    -0.70200
O476        O  0.49104084  0.71916232  0.08087891    -0.77000
O477        O  0.08312656  0.80849056  0.96597344    -0.70400
O478        O  0.01736461  0.77775963  0.08297110    -0.70800
O479        O  0.98473318  0.80871051  0.02254211    -0.70700
O480        O  0.47029890  0.79811501  0.96121185    -0.70500
C481        C  0.40995895  0.67381581  0.99216884     0.81300
C482        C  0.02751794  0.68302241  0.98783991     0.81800
C483        C  0.00242376  0.74722201  0.88473807     0.80700
C484        C  0.08388848  0.83378124  0.98529839     0.81100
C485        C  0.00481562  0.74829429  0.10002870     0.82200
C486        C  0.48074923  0.81869598  0.99043608     0.81300
Zn487      Zn  0.27296755  0.49751146  0.98211399     1.49700
Zn488      Zn  0.20458280  0.96560937  0.03644415     1.49400
Zn489      Zn  0.25655755  0.54137848  0.04240697     1.49100
Zn490      Zn  0.21022323  0.01067619  0.96449544     1.49500
O491        O  0.23667562  0.50393565  0.00583270    -1.80000
O492        O  0.26366939  0.94832962  0.99707351    -0.70600
O493        O  0.21221391  0.97293326  0.09342861    -0.70400
O494        O  0.30368645  0.57560991  0.02479949    -0.70000
O495        O  0.21038369  0.92588520  0.02438851    -0.70600
O496        O  0.32098785  0.54546259  0.98840798    -0.70200
O497        O  0.25728886  0.52701719  0.09723715    -0.70800
O498        O  0.21458393  0.55917874  0.97851359    -0.70200
O499        O  0.15533792  0.94900594  0.02196830    -0.71000
O500        O  0.23354799  0.56934482  0.03961571    -0.70400
O501        O  0.16460138  0.96185271  0.95995081    -0.70800
O502        O  0.23280720  0.01624118  0.91230196    -0.70700
O503        O  0.26787212  0.49480366  0.92371322    -0.70500
C504        C  0.23481412  0.92221223  0.01044192     0.81300
C505        C  0.23432113  0.49890785  0.11390027     0.81800
C506        C  0.32607497  0.57451300  0.00302732     0.80700
C507        C  0.22551117  0.57884220  0.00862905     0.81100
C508        C  0.14820328  0.93980558  0.98699097     0.82200
C509        C  0.25328365  0.50622296  0.90095053     0.81300
Zn510      Zn  0.28197170  0.75815598  0.02589301     1.49700
Zn511      Zn  0.20675551  0.75292485  0.03234450     1.49400
Zn512      Zn  0.26074518  0.79786415  0.96282420     1.49100
Zn513      Zn  0.22113842  0.71928695  0.96085012     1.49500
O514        O  0.24368154  0.75810102  0.99689708    -1.80000
O515        O  0.27432955  0.75962322  0.08368091    -0.70600
O516        O  0.20120929  0.79669490  0.02436247    -0.70400
O517        O  0.30940453  0.83270654  0.97602665    -0.70000
O518        O  0.22244973  0.75637394  0.08827529    -0.70600
O519        O  0.32897981  0.80638298  0.01537489    -0.70200
O520        O  0.23778395  0.82415641  0.97489285    -0.70800
O521        O  0.23503280  0.73013953  0.90587831    -0.70200
O522        O  0.16610112  0.70054144  0.02649265    -0.71000
O523        O  0.25846020  0.78808182  0.90582996    -0.70400
O524        O  0.16924388  0.69446526  0.96370033    -0.70800
O525        O  0.23057720  0.68325263  0.97763747    -0.70700
O526        O  0.27664363  0.70846143  0.01780478    -0.70500
C527        C  0.24969454  0.75861957  0.10387329     0.81300
C528        C  0.21763916  0.82310958  0.00145885     0.81800
C529        C  0.33329537  0.83370066  0.99706417     0.80700
C530        C  0.24835429  0.75926012  0.88815865     0.81100
C531        C  0.15656044  0.68116068  0.99630336     0.82200
C532        C  0.25221711  0.68141599  0.99990061     0.81300
Zn533      Zn  0.46553859  0.96896081  0.63508810     1.49700
Zn534      Zn  0.00870645  0.52750592  0.69780576     1.49400
Zn535      Zn  0.49948762  0.95400543  0.70654715     1.49100
Zn536      Zn  0.04560130  0.50086025  0.63712040     1.49500
O537        O  0.00651307  0.48738574  0.67171724    -1.80000
O538        O  0.42947478  0.97962350  0.65023441    -0.70600
O539        O  0.00815904  0.52130484  0.75704711    -0.70400
O540        O  0.44717587  0.91203088  0.69951826    -0.70000
O541        O  0.45355368  0.51778899  0.68492819    -0.70600
O542        O  0.44085666  0.91724094  0.63707171    -0.70200
O543        O  0.50225868  0.96960720  0.76249721    -0.70800
O544        O  0.06131748  0.46694782  0.64227307    -0.70200
O545        O  0.05961823  0.57160162  0.68543581    -0.71000
O546        O  0.05197051  0.95517182  0.70458099    -0.70400
O547        O  0.08513993  0.54632598  0.65355642    -0.70800
O548        O  0.03721963  0.50536772  0.58103725    -0.70700
O549        O  0.47719405  0.98239033  0.58030557    -0.70500
C550        C  0.42590043  0.49233243  0.66873528     0.81300
C551        C  0.00546551  0.49647719  0.77847604     0.81800
C552        C  0.42791629  0.90280221  0.66911859     0.80700
C553        C  0.07301018  0.96484472  0.67565885     0.81100
C554        C  0.08705850  0.57252469  0.67083037     0.82200
C555        C  0.00814137  0.49405013  0.56355105     0.81300
Zn556      Zn  0.04109189  0.77713698  0.69260803     1.49700
Zn557      Zn  0.00416189  0.79305448  0.62273551     1.49400
Zn558      Zn  0.50279049  0.72203629  0.62647559     1.49100
Zn559      Zn  0.46373744  0.74278643  0.69169396     1.49500
O560        O  0.50371023  0.75976221  0.65769196    -1.80000
O561        O  0.06984087  0.82862232  0.68828589    -0.70600
O562        O  0.00580298  0.77978724  0.56724516    -0.70400
O563        O  0.04532140  0.71816002  0.63407450    -0.70000
O564        O  0.05378146  0.83808803  0.63062336    -0.70600
O565        O  0.07449722  0.76455433  0.67299586    -0.70200
O566        O  0.50153978  0.73112185  0.56938384    -0.70800
O567        O  0.42859647  0.69487857  0.67624431    -0.70200
O568        O  0.46227812  0.79932011  0.62917023    -0.71000
O569        O  0.45397053  0.67525246  0.63554405    -0.70400
O570        O  0.43722832  0.76617409  0.68150463    -0.70800
O571        O  0.47277145  0.74281946  0.74880425    -0.70700
O572        O  0.03096094  0.76385074  0.74876537    -0.70500
C573        C  0.07660697  0.84660831  0.65766345     0.81300
C574        C  0.50476310  0.75713944  0.55014893     0.81800
C575        C  0.07402483  0.74206527  0.65008911     0.80700
C576        C  0.42687272  0.67128267  0.65410806     0.81100
C577        C  0.43632970  0.78340665  0.65281019     0.82200
C578        C  0.50091030  0.75098489  0.76708341     0.81300
Zn579      Zn  0.22039237  0.98688228  0.71122536     1.49700
Zn580      Zn  0.24994196  0.53177464  0.64466588     1.49400
Zn581      Zn  0.29679047  0.51961675  0.70710152     1.49100
Zn582      Zn  0.25797230  0.97118909  0.64070733     1.49500
O583        O  0.25777196  0.00757093  0.67309736    -1.80000
O584        O  0.19484373  0.01274320  0.71333879    -0.70600
O585        O  0.29828545  0.58009412  0.64681855    -0.70400
O586        O  0.28807932  0.52122012  0.76438575    -0.70000
O587        O  0.20085087  0.52500748  0.66084366    -0.70600
O588        O  0.23442524  0.98455861  0.76583596    -0.70200
O589        O  0.32915481  0.56672925  0.68718308    -0.70800
O590        O  0.30451982  0.97077130  0.65373509    -0.70200
O591        O  0.24499782  0.52095613  0.58672378    -0.71000
O592        O  0.32562516  0.49829090  0.69971173    -0.70400
O593        O  0.26105524  0.98363037  0.58318158    -0.70800
O594        O  0.20705781  0.92659964  0.64424728    -0.70700
O595        O  0.18302572  0.94114428  0.69213376    -0.70500
C596        C  0.17664027  0.50084406  0.68213548     0.81300
C597        C  0.32750879  0.58721631  0.66291173     0.81800
C598        C  0.26220678  0.00763437  0.78292737     0.80700
C599        C  0.33051032  0.99111516  0.67593557     0.81100
C600        C  0.25509674  0.00520950  0.56501832     0.82200
C601        C  0.18028808  0.92123160  0.66442898     0.81300
Zn602      Zn  0.25485746  0.71791415  0.63420113     1.49700
Zn603      Zn  0.21155897  0.73530710  0.69761826     1.49400
Zn604      Zn  0.28906870  0.77712215  0.69912508     1.49100
Zn605      Zn  0.25175628  0.78921088  0.62826275     1.49500
O606        O  0.25072089  0.75365045  0.66293138    -1.80000
O607        O  0.21082722  0.66861485  0.64962806    -0.70600
O608        O  0.22333782  0.74947936  0.75332852    -0.70400
O609        O  0.33026059  0.77629454  0.67937527    -0.70000
O610        O  0.18476264  0.68406476  0.69449943    -0.70600
O611        O  0.30805267  0.73101289  0.63826208    -0.70200
O612        O  0.27860145  0.76116642  0.75380612    -0.70800
O613        O  0.30187635  0.83405923  0.63732736    -0.70200
O614        O  0.17624086  0.74538067  0.67768554    -0.71000
O615        O  0.30468185  0.82740648  0.69995685    -0.70400
O616        O  0.20230857  0.78578532  0.63143071    -0.70800
O617        O  0.25283050  0.77544106  0.57283698    -0.70700
O618        O  0.24936581  0.72339905  0.57661913    -0.70500
C619        C  0.18510074  0.66118105  0.67284317     0.81300
C620        C  0.25105619  0.75579740  0.77142230     0.81800
C621        C  0.33440958  0.75734200  0.65503861     0.80700
C622        C  0.31946490  0.84280423  0.66889451     0.81100
C623        C  0.17480312  0.76399428  0.65083973     0.82200
C624        C  0.25056485  0.74837243  0.55689546     0.81300
C625        C  0.36108237  0.61777770  0.65278797    -0.09100
C626        C  0.39203922  0.64046581  0.65003701    -0.10700
C627        C  0.14466170  0.89403044  0.65491533    -0.09100
C628        C  0.11289857  0.87447662  0.65284446    -0.10700
C629        C  0.40225776  0.77948832  0.64564755    -0.09100
C630        C  0.37064576  0.76790892  0.64651926    -0.10700
C631        C  0.10832217  0.74670559  0.64190764    -0.09100
C632        C  0.13975462  0.75717465  0.64204732    -0.10700
C633        C  0.38980572  0.88005422  0.67090267    -0.09100
C634        C  0.35771654  0.86488217  0.66909321    -0.10700
C635        C  0.12212423  0.60335001  0.67325759    -0.09100
C636        C  0.15264312  0.62740708  0.67267872    -0.10700
C637        C  0.39158857  0.48862864  0.67146134    -0.09100
C638        C  0.36394293  0.99246788  0.67460673    -0.10700
C639        C  0.14054983  0.49259291  0.68127691    -0.09100
C640        C  0.11081787  0.98122644  0.68096627    -0.10700
C641        C  0.25110313  0.75916657  0.84714515    -0.09100
C642        C  0.25145727  0.75753788  0.81254941    -0.10700
C643        C  0.22757642  0.88654710  0.00916390    -0.09100
C644        C  0.21847824  0.85566877  0.00752969    -0.10700
C645        C  0.23429104  0.61497624  0.00675975    -0.09100
C646        C  0.24592342  0.64642686  0.00550163    -0.10700
C647        C  0.25864516  0.50604712  0.85992824    -0.09100
C648        C  0.26281836  0.00800507  0.82444133    -0.10700
C649        C  0.37864572  0.63931608  0.99012343    -0.09100
C650        C  0.35635221  0.60838518  0.99365730    -0.10700
C651        C  0.12626725  0.90251899  0.97877163    -0.09100
C652        C  0.10973017  0.87047637  0.97838021    -0.10700
C653        C  0.49952777  0.74696100  0.80836526    -0.09100
C654        C  0.49878423  0.74572153  0.84319099    -0.10700
C655        C  0.36462967  0.86809650  0.00122762    -0.09100
C656        C  0.38808926  0.89875874  0.00327937    -0.10700
C657        C  0.12251442  0.61103454  0.00109208    -0.09100
C658        C  0.13626790  0.64297134  0.99939258    -0.10700
C659        C  0.01064749  0.88928495  0.98719591    -0.09100
C660        C  0.49680982  0.85675556  0.98627172    -0.10700
C661        C  0.02772394  0.65047261  0.98374092    -0.09100
C662        C  0.51526989  0.61793040  0.98255199    -0.10700
C663        C  0.50239577  0.49632186  0.85364465    -0.09100
C664        C  0.50176971  0.49451232  0.81862044    -0.10700
C665        C  0.25060595  0.74699187  0.48041077    -0.09100
C666        C  0.24984939  0.74642473  0.51532649    -0.10700
C667        C  0.25524555  0.76052261  0.18039670    -0.09100
C668        C  0.25265095  0.75978471  0.14551033    -0.10700
C669        C  0.25414508  0.00461827  0.52305211    -0.09100
C670        C  0.25273288  0.00392793  0.48797323    -0.10700
C671        C  0.25950287  0.89265876  0.35626031    -0.09100
C672        C  0.27357255  0.87504181  0.35507726    -0.10700
C673        C  0.25885994  0.61988414  0.34470570    -0.09100
C674        C  0.24972507  0.64162655  0.34219348    -0.10700
C675        C  0.23618259  0.49556911  0.15475434    -0.09100
C676        C  0.23767168  0.49366109  0.18929748    -0.10700
C677        C  0.50511282  0.75377737  0.47358830    -0.09100
C678        C  0.50497589  0.75565187  0.50848232    -0.10700
C679        C  0.37252067  0.75597247  0.34155049    -0.09100
C680        C  0.38847878  0.74009314  0.34070161    -0.10700
C681        C  0.12470219  0.76963858  0.34040203    -0.09100
C682        C  0.14725654  0.76149070  0.34055539    -0.10700
C683        C  0.50708100  0.74762086  0.14025495    -0.09100
C684        C  0.50648939  0.74696213  0.17488323    -0.10700
C685        C  0.00247219  0.99677101  0.48811695    -0.09100
C686        C  0.00625935  0.99746447  0.52243885    -0.10700
C687        C  0.47811067  0.87257331  0.32690353    -0.09100
C688        C  0.99283544  0.85623835  0.32797901    -0.10700
C689        C  0.99783355  0.60356735  0.33471305    -0.09100
C690        C  0.49057821  0.62565469  0.32967456    -0.10700
C691        C  0.35781976  0.50152193  0.33662356    -0.09100
C692        C  0.37440232  0.98499933  0.33458699    -0.10700
C693        C  0.10012711  0.48338781  0.34480822    -0.09100
C694        C  0.12344095  0.97507434  0.34253406    -0.10700
C695        C  0.49981601  0.49936928  0.15610439    -0.09100
C696        C  0.49761473  0.49759686  0.19104632    -0.10700
Zn697      Zn  0.96447138  0.00095681  0.37633336     1.49700
Zn698      Zn  0.52788152  0.02343967  0.31542724     1.49400
Zn699      Zn  0.49790873  0.45733610  0.37328669     1.49100
Zn700      Zn  0.95122101  0.45421003  0.30354407     1.49500
O701        O  0.48619873  0.98461380  0.34006967    -1.80000
O702        O  0.47623328  0.04763274  0.36105298    -0.70600
O703        O  0.57158876  0.01715477  0.32864939    -0.70400
O704        O  0.50079292  0.46942966  0.42894232    -0.70000
O705        O  0.52606002  0.06973136  0.32683179    -0.70600
O706        O  0.98091258  0.00623688  0.43091332    -0.70200
O707        O  0.54422778  0.96476534  0.35806861    -0.70800
O708        O  0.95414109  0.40794306  0.30623340    -0.70200
O709        O  0.52263454  0.01802226  0.25666465    -0.71000
O710        O  0.96470281  0.40652265  0.36842950    -0.70400
O711        O  0.96850036  0.47211938  0.24887229    -0.70800
O712        O  0.90809664  0.46210631  0.31211579    -0.70700
O713        O  0.91315347  0.47587792  0.37434833    -0.70500
C714        C  0.50107385  0.07257031  0.34249903     0.81300
C715        C  0.57136290  0.98987864  0.34255487     0.81800
C716        C  0.49373863  0.49016464  0.44671514     0.80700
C717        C  0.96281587  0.39512332  0.33451810     0.81100
C718        C  0.99365814  0.99269966  0.23402638     0.82200
C719        C  0.89867554  0.47274837  0.34185581     0.81300
Zn720      Zn  0.52358478  0.22716995  0.29397971     1.49700
Zn721      Zn  0.97494021  0.25657494  0.28858697     1.49400
Zn722      Zn  0.96584633  0.20788721  0.36031688     1.49100
Zn723      Zn  0.53577832  0.28788103  0.35491824     1.49500
O724        O  0.00041353  0.24463699  0.32592203    -1.80000
O725        O  0.52184190  0.23330582  0.23653544    -0.70600
O726        O  0.92337648  0.23001659  0.29804172    -0.70400
O727        O  0.96488645  0.16033564  0.34950486    -0.70000
O728        O  0.98519836  0.25288254  0.23285402    -0.70600
O729        O  0.00619428  0.17744922  0.30386156    -0.70200
O730        O  0.92283147  0.21532719  0.35923395    -0.70800
O731        O  0.52588957  0.28055065  0.41268334    -0.70200
O732        O  0.48288682  0.30324431  0.29798279    -0.71000
O733        O  0.98048954  0.21929001  0.41621977    -0.70400
O734        O  0.52613371  0.32906911  0.34148784    -0.70800
O735        O  0.58553277  0.29137661  0.35042971    -0.70700
O736        O  0.57225034  0.24679017  0.31029576    -0.70500
C737        C  0.00562711  0.24414774  0.21707652     0.81300
C738        C  0.91165791  0.22678400  0.33211638     0.81800
C739        C  0.98500087  0.15466847  0.32747791     0.80700
C740        C  0.00193797  0.24811691  0.43292690     0.81100
C741        C  0.50208177  0.32877128  0.32006930     0.82200
C742        C  0.59335901  0.27034575  0.33328886     0.81300
Zn743      Zn  0.77227584  0.48527417  0.30248032     1.49700
Zn744      Zn  0.72957463  0.02131828  0.30800010     1.49400
Zn745      Zn  0.71468883  0.46151716  0.37208726     1.49100
Zn746      Zn  0.78608863  0.03712790  0.37559536     1.49500
O747        O  0.74894635  0.00129471  0.34227576    -1.80000
O748        O  0.75725636  0.48063236  0.24676037    -0.70600
O749        O  0.67838957  0.49735378  0.31634423    -0.70400
O750        O  0.72590375  0.42019017  0.36664541    -0.70000
O751        O  0.73581043  0.01825836  0.25113968    -0.70600
O752        O  0.76817973  0.44168039  0.32167926    -0.70200
O753        O  0.66446860  0.45649618  0.36179542    -0.70800
O754        O  0.77340374  0.02532104  0.43246571    -0.70200
O755        O  0.74513197  0.06941715  0.32270054    -0.71000
O756        O  0.72475886  0.47488505  0.42945277    -0.70400
O757        O  0.78653754  0.08517172  0.36793655    -0.70800
O758        O  0.82849969  0.02836242  0.36777366    -0.70700
O759        O  0.82205860  0.01575666  0.30557337    -0.70500
C760        C  0.74392234  0.99868613  0.23245204     0.81300
C761        C  0.65657650  0.47514536  0.33989078     0.81800
C762        C  0.75028742  0.41906055  0.34726587     0.80700
C763        C  0.74753180  0.99988464  0.45002594     0.81100
C764        C  0.76585300  0.09123440  0.34733786     0.82200
C765        C  0.83673313  0.01741149  0.33749547     0.81300
Zn766      Zn  0.78270193  0.24174369  0.29829846     1.49700
Zn767      Zn  0.79837732  0.29164362  0.37123886     1.49400
Zn768      Zn  0.74945514  0.28706048  0.30017416     1.49100
Zn769      Zn  0.72197298  0.22344170  0.36284324     1.49500
O770        O  0.76255154  0.26057045  0.33406091    -1.80000
O771        O  0.83448748  0.26499304  0.30408372    -0.70600
O772        O  0.79689934  0.33813484  0.36996849    -0.70400
O773        O  0.74917780  0.27734906  0.24275209    -0.70000
O774        O  0.84101970  0.28358406  0.36480676    -0.70600
O775        O  0.77109066  0.24192043  0.24148885    -0.70200
O776        O  0.77927047  0.33813073  0.30986863    -0.70800
O777        O  0.67815228  0.22987286  0.35292351    -0.70200
O778        O  0.78338004  0.27600383  0.42623105    -0.71000
O779        O  0.70262136  0.27820519  0.31605252    -0.70400
O780        O  0.72862498  0.23097044  0.42071904    -0.70800
O781        O  0.72416491  0.17694167  0.35720760    -0.70700
O782        O  0.76934474  0.19442791  0.31638274    -0.70500
C783        C  0.84967353  0.27073748  0.33657554     0.81300
C784        C  0.78573998  0.35058187  0.34379951     0.81800
C785        C  0.75861152  0.25863515  0.22416802     0.80700
C786        C  0.67732605  0.25571643  0.33661098     0.81100
C787        C  0.75478258  0.25221929  0.44133065     0.82200
C788        C  0.74761399  0.17240968  0.34036715     0.81300
Zn789      Zn  0.97673575  0.50504737  0.97485924     1.49700
Zn790      Zn  0.54726590  0.00159892  0.97142097     1.49400
Zn791      Zn  0.53409281  0.04116300  0.04215435     1.49100
Zn792      Zn  0.99424828  0.46334564  0.04197750     1.49500
O793        O  0.00648014  0.00043298  0.00479018    -1.80000
O794        O  0.98363395  0.50139966  0.91685527    -0.70600
O795        O  0.59191778  0.05198343  0.97973314    -0.70400
O796        O  0.53069088  0.08113534  0.02095305    -0.70000
O797        O  0.53548026  0.00259774  0.91445030    -0.70600
O798        O  0.98274519  0.05626992  0.97655501    -0.70200
O799        O  0.58514476  0.05940078  0.04156649    -0.70800
O800        O  0.99927176  0.47454432  0.09939685    -0.70200
O801        O  0.53961909  0.45117115  0.97441654    -0.71000
O802        O  0.51850892  0.03079878  0.09833981    -0.70400
O803        O  0.00972422  0.42999964  0.02849103    -0.70800
O804        O  0.94414222  0.43268447  0.03088271    -0.70700
O805        O  0.92820720  0.45905329  0.98696095    -0.70500
C806        C  0.00381116  0.99964845  0.89618152     0.81300
C807        C  0.60021897  0.07185621  0.00958747     0.81800
C808        C  0.00751841  0.08306185  0.99450372     0.80700
C809        C  0.00186789  0.99933130  0.11562622     0.81100
C810        C  0.51979555  0.42452477  0.99596614     0.82200
C811        C  0.92155193  0.43238177  0.00816563     0.81300
Zn812      Zn  0.96474403  0.24877292  0.95941717     1.49700
Zn813      Zn  0.98386179  0.20939523  0.02460460     1.49400
Zn814      Zn  0.54276137  0.25556537  0.95938565     1.49100
Zn815      Zn  0.51584093  0.28758400  0.02705384     1.49500
O816        O  0.50237312  0.24919974  0.99053534    -1.80000
O817        O  0.91637575  0.20222432  0.97126370    -0.70600
O818        O  0.00335995  0.18071376  0.00918996    -0.70400
O819        O  0.53098957  0.25281089  0.90234522    -0.70000
O820        O  0.93412536  0.17685087  0.01423537    -0.70600
O821        O  0.97386045  0.24406179  0.90314267    -0.70200
O822        O  0.54872241  0.21119127  0.96777960    -0.70800
O823        O  0.56089401  0.32774565  0.01045466    -0.70200
O824        O  0.99156519  0.21894557  0.08139985    -0.77000
O825        O  0.58366393  0.30848281  0.96586296    -0.70400
O826        O  0.51762822  0.27627476  0.08304926    -0.70800
O827        O  0.48528952  0.30808175  0.02224461    -0.70700
O828        O  0.97393519  0.30018462  0.96308606    -0.70500
C829        C  0.91079274  0.17570812  0.99210972     0.81300
C830        C  0.52822630  0.18271879  0.98658160     0.81800
C831        C  0.50398344  0.24802480  0.88374917     0.80700
C832        C  0.58423432  0.33349057  0.98557374     0.81100
C833        C  0.50558573  0.24662785  0.09962765     0.82200
C834        C  0.98500984  0.32071903  0.99235737     0.81300
Zn835      Zn  0.77266427  0.99913657  0.98330424     1.49700
Zn836      Zn  0.70514119  0.46602727  0.03810710     1.49400
Zn837      Zn  0.75583242  0.04327193  0.04317702     1.49100
Zn838      Zn  0.71107229  0.50997958  0.96462002     1.49500
O839        O  0.73602377  0.00483351  0.00741235    -1.80000
O840        O  0.76455102  0.44807819  0.00069449    -0.70600
O841        O  0.71278942  0.47450577  0.09499717    -0.70400
O842        O  0.80306754  0.07790537  0.02523706    -0.70000
O843        O  0.71132166  0.42635511  0.02795404    -0.70600
O844        O  0.82032496  0.04790357  0.98854101    -0.70200
O845        O  0.75668346  0.02992203  0.09855551    -0.70800
O846        O  0.71417669  0.05964522  0.97782510    -0.70200
O847        O  0.65576075  0.44840692  0.02324918    -0.71000
O848        O  0.73234403  0.07075898  0.03910389    -0.70400
O849        O  0.66478862  0.46167931  0.96123086    -0.70800
O850        O  0.73238882  0.51282065  0.91217951    -0.70700
O851        O  0.76708151  0.99588739  0.92521036    -0.70500
C852        C  0.73577296  0.42236914  0.01473018     0.81300
C853        C  0.73567004  0.00120085  0.11565857     0.81800
C854        C  0.82538904  0.07697063  0.00315003     0.80700
C855        C  0.72543029  0.08005802  0.00726966     0.81100
C856        C  0.64842646  0.43953490  0.98820568     0.82200
C857        C  0.75118126  0.00567432  0.90231968     0.81300
Zn858      Zn  0.78251546  0.25809496  0.02692126     1.49700
Zn859      Zn  0.70738157  0.25272225  0.03599096     1.49400
Zn860      Zn  0.76082090  0.29875482  0.96634626     1.49100
Zn861      Zn  0.71981196  0.21996443  0.96262752     1.49500
O862        O  0.74358263  0.25822932  0.99931077    -1.80000
O863        O  0.77513735  0.25745693  0.08519737    -0.70600
O864        O  0.70178296  0.29659831  0.02949197    -0.70400
O865        O  0.80958918  0.33344966  0.97919100    -0.70000
O866        O  0.72404342  0.25568094  0.09115706    -0.70600
O867        O  0.82946995  0.30649764  0.01702356    -0.70200
O868        O  0.73793663  0.32463093  0.97985444    -0.70800
O869        O  0.73108363  0.23207494  0.90728907    -0.70200
O870        O  0.66665876  0.20014163  0.03123783    -0.71000
O871        O  0.75825433  0.29034412  0.90919271    -0.70400
O872        O  0.66796305  0.19290957  0.96839272    -0.70800
O873        O  0.73167441  0.18484998  0.97600491    -0.70700
O874        O  0.77810424  0.20945761  0.01578894    -0.70500
C875        C  0.75093494  0.25668235  0.10604173     0.81300
C876        C  0.71805107  0.32326372  0.00687264     0.81800
C877        C  0.83372738  0.33407350  0.99940300     0.80700
C878        C  0.74594629  0.26171298  0.89050879     0.81100
C879        C  0.65620696  0.18022780  0.00145819     0.82200
C880        C  0.75390646  0.18287804  0.99715250     0.81300
Zn881      Zn  0.96821584  0.46398422  0.63581668     1.49700
Zn882      Zn  0.50500393  0.02962596  0.69997347     1.49400
Zn883      Zn  0.00212866  0.45225416  0.70905395     1.49100
Zn884      Zn  0.54429222  0.00735111  0.63678391     1.49500
O885        O  0.50441995  0.99090704  0.67116078    -1.80000
O886        O  0.93220858  0.47409350  0.65087527    -0.70600
O887        O  0.50591942  0.02167785  0.75842505    -0.70400
O888        O  0.95059758  0.40928641  0.70183917    -0.70000
O889        O  0.95921228  0.02259594  0.68522436    -0.70600
O890        O  0.94568654  0.41259831  0.63884474    -0.70200
O891        O  0.00266633  0.46863671  0.76399796    -0.70800
O892        O  0.57122068  0.98528766  0.64909298    -0.70200
O893        O  0.55407793  0.07599673  0.68918942    -0.71000
O894        O  0.54548550  0.44788558  0.70103042    -0.70400
O895        O  0.57930600  0.05605574  0.64876215    -0.70800
O896        O  0.53494175  0.00433854  0.57997825    -0.70700
O897        O  0.97894925  0.47776191  0.58108290    -0.70500
C898        C  0.93083553  0.99681059  0.67046979     0.81300
C899        C  0.50478804  0.99682981  0.77844770     0.81800
C900        C  0.93188048  0.39949881  0.67106969     0.80700
C901        C  0.56845683  0.45938589  0.67383771     0.81100
C902        C  0.58095357  0.08006858  0.67004093     0.82200
C903        C  0.50617900  0.99474336  0.56249349     0.81300
Zn904      Zn  0.54516393  0.28761731  0.69281378     1.49700
Zn905      Zn  0.50919202  0.30278480  0.62226787     1.49400
Zn906      Zn  0.99879474  0.21603592  0.62678187     1.49100
Zn907      Zn  0.96060754  0.23657075  0.69297368     1.49500
O908        O  0.00031426  0.25411454  0.65825895    -1.80000
O909        O  0.56938908  0.33948668  0.69057821    -0.70600
O910        O  0.50875311  0.28857611  0.56650092    -0.70400
O911        O  0.55158015  0.23018099  0.63450860    -0.70000
O912        O  0.56077885  0.34523838  0.62874375    -0.70600
O913        O  0.58034198  0.27813035  0.67162375    -0.70200
O914        O  0.99857671  0.22607555  0.56992320    -0.70800
O915        O  0.92496687  0.18893581  0.67728819    -0.70200
O916        O  0.95749256  0.29293636  0.63146303    -0.71000
O917        O  0.94916880  0.16989252  0.63436650    -0.70400
O918        O  0.93355081  0.25966190  0.68392673    -0.70800
O919        O  0.97065383  0.23691108  0.74987077    -0.70700
O920        O  0.53498463  0.27165141  0.74845356    -0.70500
C921        C  0.58127400  0.35361079  0.65800218     0.81300
C922        C  0.00080617  0.25180968  0.55100267     0.81800
C923        C  0.58021797  0.25539302  0.64931884     0.80700
C924        C  0.92245672  0.16593347  0.65369604     0.81100
C925        C  0.93208296  0.27706701  0.65572743     0.82200
C926        C  0.99942328  0.24677761  0.76765744     0.81300
Zn927      Zn  0.71948566  0.46400047  0.71022313     1.49700
Zn928      Zn  0.74610461  0.02510256  0.64721526     1.49400
Zn929      Zn  0.79594055  0.01753314  0.70943979     1.49100
Zn930      Zn  0.76115520  0.46420223  0.63596342     1.49500
O931        O  0.75635881  0.49441324  0.67382094    -1.80000
O932        O  0.67899413  0.46969103  0.70171810    -0.70600
O933        O  0.79321470  0.07469437  0.64736793    -0.70400
O934        O  0.78635550  0.02004167  0.76620032    -0.70000
O935        O  0.69614676  0.01522553  0.66474236    -0.70600
O936        O  0.73183801  0.47263458  0.76677468    -0.70200
O937        O  0.82599299  0.06427880  0.68816245    -0.70800
O938        O  0.80831451  0.46514014  0.64794448    -0.70200
O939        O  0.74035679  0.01356869  0.58957278    -0.71000
O940        O  0.82755562  0.99894270  0.70331627    -0.70400
O941        O  0.76494640  0.48196814  0.58088742    -0.70800
O942        O  0.71091208  0.41998507  0.63442223    -0.70700
O943        O  0.69954778  0.41382439  0.69680884    -0.70500
C944        C  0.67241224  0.98959505  0.68506355     0.81300
C945        C  0.82302408  0.08336341  0.66309196     0.81800
C946        C  0.75961156  0.49603002  0.78361498     0.80700
C947        C  0.83274434  0.48373892  0.67254996     0.81100
C948        C  0.75317841  0.50034963  0.56597966     0.82200
C949        C  0.68907485  0.40609771  0.66222849     0.81300
Zn950      Zn  0.75227881  0.22036083  0.63753736     1.49700
Zn951      Zn  0.71131543  0.24218010  0.69913714     1.49400
Zn952      Zn  0.78902563  0.28037612  0.70180428     1.49100
Zn953      Zn  0.75509110  0.29442595  0.62951077     1.49500
O954        O  0.75081808  0.25807999  0.66529637    -1.80000
O955        O  0.70603209  0.17271958  0.65247851    -0.70600
O956        O  0.72246542  0.25518714  0.75508807    -0.70400
O957        O  0.82853386  0.27593250  0.68315317    -0.70000
O958        O  0.68098670  0.19118429  0.69524934    -0.70600
O959        O  0.80410819  0.22988720  0.64299201    -0.70200
O960        O  0.77725718  0.26551665  0.75670038    -0.70800
O961        O  0.80624155  0.33723460  0.63833553    -0.70200
O962        O  0.67938138  0.25623669  0.67841527    -0.71000
O963        O  0.80778529  0.33135882  0.70126605    -0.70400
O964        O  0.70790792  0.29514000  0.63137139    -0.70800
O965        O  0.75554127  0.27941424  0.57459899    -0.70700
O966        O  0.74830062  0.22583449  0.57958341    -0.70500
C967        C  0.68008661  0.16723989  0.67438400     0.81300
C968        C  0.74963537  0.26066095  0.77372069     0.81800
C969        C  0.83123558  0.25551564  0.65959660     0.80700
C970        C  0.82342645  0.34561282  0.67012039     0.81100
C971        C  0.67981273  0.27522689  0.65089334     0.82200
C972        C  0.75154489  0.25140893  0.55926850     0.81300
C973        C  0.85601903  0.11389688  0.65154872    -0.09100
C974        C  0.88716135  0.13602270  0.64874469    -0.10700
C975        C  0.65128727  0.38715796  0.65492730    -0.09100
C976        C  0.61938640  0.37423565  0.65362180    -0.10700
C977        C  0.89813246  0.27386959  0.65002716    -0.09100
C978        C  0.86683688  0.26374668  0.65143310    -0.10700
C979        C  0.61463522  0.26066106  0.64090260    -0.09100
C980        C  0.64586714  0.27054469  0.64120098    -0.10700
C981        C  0.89363357  0.37878474  0.67259141    -0.09100
C982        C  0.86174201  0.36553395  0.67061984    -0.10700
C983        C  0.61560616  0.11128660  0.67324391    -0.09100
C984        C  0.64640860  0.13467927  0.67356809    -0.10700
C985        C  0.89670349  0.99351414  0.67421013    -0.09100
C986        C  0.86713239  0.48744032  0.67076155    -0.10700
C987        C  0.63602220  0.98047947  0.68485981    -0.09100
C988        C  0.60394538  0.46718271  0.68036045    -0.10700
C989        C  0.74843008  0.26255632  0.84945535    -0.09100
C990        C  0.74923286  0.26176316  0.81484114    -0.10700
C991        C  0.72848361  0.38671868  0.01481324    -0.09100
C992        C  0.71905645  0.35576788  0.01361596    -0.10700
C993        C  0.73576455  0.11650224  0.00366443    -0.09100
C994        C  0.74797910  0.14798269  0.00163425    -0.10700
C995        C  0.75637636  0.00506661  0.86138862    -0.09100
C996        C  0.75960542  0.49864867  0.82503141    -0.10700
C997        C  0.87866708  0.14170617  0.99004314    -0.09100
C998        C  0.85572852  0.11094507  0.99365424    -0.10700
C999        C  0.62623855  0.40234632  0.97968814    -0.09100
C1000       C  0.60981880  0.37030961  0.97895557    -0.10700
C1001       C  0.99903448  0.24393439  0.80903520    -0.09100
C1002       C  0.99914688  0.24386281  0.84388606    -0.10700
C1003       C  0.86538924  0.36825290  0.00322097    -0.09100
C1004       C  0.88913626  0.39881285  0.00482392    -0.10700
C1005       C  0.62154696  0.11003317  0.00626636    -0.09100
C1006       C  0.63551212  0.14204649  0.00516329    -0.10700
C1007       C  0.51201101  0.38907800  0.98700252    -0.09100
C1008       C  0.00055403  0.35867013  0.98830017    -0.10700
C1009       C  0.52870132  0.15031358  0.98254198    -0.09100
C1010       C  0.01700493  0.11890313  0.98492721    -0.10700
C1011       C  0.00259634  0.99827242  0.85426873    -0.09100
C1012       C  0.00256690  0.99671468  0.81922099    -0.10700
C1013       C  0.75208749  0.24954479  0.48281919    -0.09100
C1014       C  0.75114682  0.24909742  0.51773271    -0.10700
C1015       C  0.75574530  0.25699853  0.18254525    -0.09100
C1016       C  0.75382416  0.25674409  0.14762467    -0.10700
C1017       C  0.75124703  0.50186927  0.52421238    -0.09100
C1018       C  0.74972553  0.50190906  0.48917910    -0.10700
C1019       C  0.76065894  0.39321186  0.35436579    -0.09100
C1020       C  0.77462425  0.37550180  0.35313389    -0.10700
C1021       C  0.76230670  0.12187600  0.35229600    -0.09100
C1022       C  0.75286215  0.14335922  0.34967703    -0.10700
C1023       C  0.73858828  0.99875190  0.15661524    -0.09100
C1024       C  0.74104096  0.99767731  0.19120214    -0.10700
C1025       C  0.00205204  0.24964586  0.47452550    -0.09100
C1026       C  0.00137827  0.25081004  0.50940293    -0.10700
C1027       C  0.87349085  0.25738556  0.34178264    -0.09100
C1028       C  0.88928956  0.24139067  0.34029693    -0.10700
C1029       C  0.62540032  0.26974061  0.34080953    -0.09100
C1030       C  0.64802639  0.26167419  0.34151214    -0.10700
C1031       C  0.00938254  0.24653125  0.14120776    -0.09100
C1032       C  0.00859938  0.24539027  0.17589584    -0.10700
C1033       C  0.49976822  0.49445957  0.48722322    -0.09100
C1034       C  0.50281950  0.49437789  0.52158710    -0.10700
C1035       C  0.97682694  0.37195308  0.32814242    -0.09100
C1036       C  0.49222450  0.35542167  0.32283521    -0.10700
C1037       C  0.49811924  0.10352485  0.33852911    -0.09100
C1038       C  0.98791292  0.12361885  0.33085266    -0.10700
C1039       C  0.85832844  0.00110693  0.33975298    -0.09100
C1040       C  0.87556693  0.48724628  0.33842238    -0.10700
C1041       C  0.60167894  0.98543295  0.34136072    -0.09100
C1042       C  0.62380752  0.47525048  0.34264185    -0.10700
C1043       C  0.99910739  0.99825291  0.15740275    -0.09100
C1044       C  0.99681366  0.99618691  0.19233909    -0.10700
Zn1045     Zn  0.96509292  0.50225839  0.37712419     1.49700
Zn1046     Zn  0.52752246  0.52166544  0.31242589     1.49400
Zn1047     Zn  0.49875013  0.95780676  0.37335438     1.49100
Zn1048     Zn  0.94925747  0.95195644  0.30392500     1.49500
O1049       O  0.48593677  0.48429715  0.33907273    -1.80000
O1050       O  0.47803325  0.54901981  0.35749630    -0.70600
O1051       O  0.57098056  0.51450230  0.32568216    -0.70400
O1052       O  0.50382413  0.97088089  0.42872158    -0.70000
O1053       O  0.52660619  0.56889850  0.32150280    -0.70600
O1054       O  0.98130493  0.50674340  0.43179032    -0.70200
O1055       O  0.54409628  0.46454289  0.35973572    -0.70800
O1056       O  0.95255994  0.90617339  0.30718339    -0.70200
O1057       O  0.52073824  0.51477410  0.25383409    -0.71000
O1058       O  0.96403434  0.90654772  0.36936671    -0.70400
O1059       O  0.96478541  0.96865806  0.24868005    -0.70800
O1060       O  0.90594863  0.95935886  0.31307787    -0.70700
O1061       O  0.91249782  0.97447185  0.37489328    -0.70500
C1062       C  0.50226713  0.57280424  0.33722237     0.81300
C1063       C  0.57092585  0.48819817  0.34221111     0.81800
C1064       C  0.49454294  0.98962057  0.44708901     0.80700
C1065       C  0.96220026  0.89460316  0.33577595     0.81100
C1066       C  0.99782565  0.49644196  0.23532870     0.82200
C1067       C  0.89708820  0.97043437  0.34286320     0.81300
Zn1068     Zn  0.52286804  0.72762732  0.29147529     1.49700
Zn1069     Zn  0.97427743  0.75768554  0.28991018     1.49400
Zn1070     Zn  0.96598919  0.70919501  0.36091663     1.49100
Zn1071     Zn  0.53495106  0.78667567  0.35449750     1.49500
O1072       O  0.00033347  0.74576814  0.32635465    -1.80000
O1073       O  0.52230172  0.73605140  0.23498150    -0.70600
O1074       O  0.92281182  0.73127935  0.29956273    -0.70400
O1075       O  0.96573653  0.66203884  0.35021886    -0.70000
O1076       O  0.98361144  0.75463332  0.23382494    -0.70600
O1077       O  0.00625596  0.67879836  0.30367844    -0.70200
O1078       O  0.92263637  0.71650640  0.36061486    -0.70800
O1079       O  0.52446458  0.77846541  0.41204480    -0.70200
O1080       O  0.48240551  0.80333916  0.29925477    -0.71000
O1081       O  0.98125116  0.72036490  0.41652780    -0.70400
O1082       O  0.52642947  0.82866166  0.34193473    -0.70800
O1083       O  0.58414753  0.78935348  0.35033588    -0.70700
O1084       O  0.57086090  0.74601574  0.30837239    -0.70500
C1085       C  0.00344355  0.74558369  0.21723489     0.81300
C1086       C  0.91106325  0.72773245  0.33362688     0.81800
C1087       C  0.98574794  0.65634881  0.32804397     0.80700
C1088       C  0.00321713  0.74886799  0.43336396     0.81100
C1089       C  0.50216473  0.82870153  0.32124814     0.82200
C1090       C  0.59166615  0.76846395  0.33242426     0.81300
Zn1091     Zn  0.77039519  0.98479256  0.30501832     1.49700
Zn1092     Zn  0.72800103  0.51843026  0.30505623     1.49400
Zn1093     Zn  0.71328064  0.96224221  0.37404508     1.49100
Zn1094     Zn  0.78620451  0.53778611  0.37192777     1.49500
O1095       O  0.74935017  0.50054388  0.33944355    -1.80000
O1096       O  0.75473585  0.98045696  0.24950155    -0.70600
O1097       O  0.67968528  0.00018467  0.31769369    -0.70400
O1098       O  0.72310062  0.92006448  0.36902340    -0.70000
O1099       O  0.73313422  0.51400318  0.24848942    -0.70600
O1100       O  0.76515719  0.94063536  0.32394959    -0.70200
O1101       O  0.66406814  0.95822052  0.36228597    -0.70800
O1102       O  0.77405665  0.52734567  0.42900934    -0.70200
O1103       O  0.74337658  0.56683918  0.31740618    -0.71000
O1104       O  0.72225067  0.97457587  0.43158095    -0.70400
O1105       O  0.78546608  0.58484256  0.36219844    -0.70800
O1106       O  0.82959537  0.53046964  0.36523982    -0.70700
O1107       O  0.82373028  0.51769943  0.30318862    -0.70500
C1108       C  0.74392428  0.49663965  0.22979745     0.81300
C1109       C  0.65711900  0.97750813  0.34034048     0.81800
C1110       C  0.74704158  0.91823431  0.34960404     0.80700
C1111       C  0.74930233  0.50144128  0.44723766     0.81100
C1112       C  0.76424803  0.58969612  0.34110296     0.82200
C1113       C  0.83837217  0.51975531  0.33521591     0.81300
Zn1114     Zn  0.78030050  0.74080755  0.29465779     1.49700
Zn1115     Zn  0.79411887  0.78905649  0.36929311     1.49400
Zn1116     Zn  0.74537136  0.78451069  0.29799150     1.49100
Zn1117     Zn  0.71889112  0.71984635  0.35961454     1.49500
O1118       O  0.75922161  0.75815409  0.33127019    -1.80000
O1119       O  0.83176943  0.76228887  0.30312983    -0.70600
O1120       O  0.79172756  0.83515346  0.36934883    -0.70400
O1121       O  0.74596492  0.77672371  0.24003017    -0.70000
O1122       O  0.83751226  0.78213518  0.36336308    -0.70600
O1123       O  0.77001099  0.74321381  0.23760328    -0.70200
O1124       O  0.77164277  0.83531869  0.31041046    -0.70800
O1125       O  0.67472390  0.72557065  0.35118325    -0.70200
O1126       O  0.77896474  0.77230411  0.42392799    -0.71000
O1127       O  0.69800911  0.77330411  0.31348546    -0.70400
O1128       O  0.72536787  0.72556554  0.41776716    -0.70800
O1129       O  0.72118454  0.67390177  0.35154234    -0.70700
O1130       O  0.76595514  0.69256370  0.30992363    -0.70500
C1131       C  0.84677788  0.76909774  0.33585234     0.81300
C1132       C  0.77967782  0.84774283  0.34431329     0.81800
C1133       C  0.75654027  0.75926776  0.22079801     0.80700
C1134       C  0.67331712  0.75097580  0.33468518     0.81100
C1135       C  0.75097647  0.74729639  0.43869965     0.82200
C1136       C  0.74444580  0.66991002  0.33355755     0.81300
Zn1137     Zn  0.97146789  0.00380736  0.97267225     1.49700
Zn1138     Zn  0.54276464  0.50033217  0.96944090     1.49400
Zn1139     Zn  0.52885460  0.53949725  0.03972538     1.49100
Zn1140     Zn  0.98693332  0.96065327  0.03965159     1.49500
O1141       O  0.01279242  0.50260836  0.00615683    -1.80000
O1142       O  0.97891807  0.99952843  0.91497574    -0.70600
O1143       O  0.58694606  0.55078932  0.97716189    -0.70400
O1144       O  0.52522301  0.57939414  0.01824765    -0.70000
O1145       O  0.53032186  0.50009337  0.91274509    -0.70600
O1146       O  0.98633010  0.55688242  0.97916976    -0.70200
O1147       O  0.58004484  0.55809953  0.03899797    -0.70800
O1148       O  0.99272634  0.97092385  0.09731914    -0.70200
O1149       O  0.54161753  0.95111984  0.97581543    -0.71000
O1150       O  0.51330174  0.52879197  0.09610977    -0.70400
O1151       O  0.00117560  0.92683090  0.02424138    -0.70800
O1152       O  0.93677122  0.93123819  0.02857469    -0.70700
O1153       O  0.92225179  0.95835068  0.98406717    -0.70500
C1154       C  0.00812947  0.50141201  0.89735359     0.81300
C1155       C  0.59521221  0.57056816  0.00705387     0.81800
C1156       C  0.01136316  0.58421086  0.99612990     0.80700
C1157       C  0.00910489  0.50335255  0.11714093     0.81100
C1158       C  0.52208151  0.92487031  0.99803362     0.82200
C1159       C  0.91481156  0.93146981  0.00531107     0.81300
Zn1160     Zn  0.96483510  0.74783336  0.95777508     1.49700
Zn1161     Zn  0.98395494  0.70948701  0.02468051     1.49400
Zn1162     Zn  0.53971704  0.75552000  0.95903643     1.49100
Zn1163     Zn  0.51362631  0.78789170  0.02674632     1.49500
O1164       O  0.49982532  0.74908717  0.99090643    -1.80000
O1165       O  0.91707081  0.70045807  0.96866856    -0.70600
O1166       O  0.00419105  0.68102738  0.01054544    -0.70400
O1167       O  0.52659891  0.75261114  0.90263215    -0.70000
O1168       O  0.93461342  0.67627999  0.01341228    -0.70600
O1169       O  0.97542961  0.74393737  0.90195810    -0.70200
O1170       O  0.54485628  0.71027134  0.96570463    -0.70800
O1171       O  0.55807309  0.82824354  0.00937203    -0.70200
O1172       O  0.99041750  0.71940329  0.08156199    -0.77000
O1173       O  0.58104126  0.80872622  0.96532038    -0.70400
O1174       O  0.51678205  0.77744171  0.08214944    -0.70800
O1175       O  0.48185500  0.80692434  0.02334728    -0.70700
O1176       O  0.97244726  0.79874958  0.96050363    -0.70500
C1177       C  0.91161800  0.67435318  0.99017054     0.81300
C1178       C  0.52490941  0.68194607  0.98505502     0.81800
C1179       C  0.49893179  0.74675146  0.88469130     0.80700
C1180       C  0.58156713  0.83389403  0.98476063     0.81100
C1181       C  0.50522854  0.74812142  0.09917085     0.82200
C1182       C  0.98260959  0.81963269  0.98947662     0.81300
Zn1183     Zn  0.77414313  0.49753927  0.98222284     1.49700
Zn1184     Zn  0.70412897  0.96613291  0.04009511     1.49400
Zn1185     Zn  0.75736269  0.54263944  0.04060049     1.49100
Zn1186     Zn  0.70907488  0.01115939  0.96745293     1.49500
O1187       O  0.73762949  0.50404185  0.00521726    -1.80000
O1188       O  0.76308930  0.94889209  0.99919400    -0.70600
O1189       O  0.71205592  0.97462215  0.09733702    -0.70400
O1190       O  0.80474362  0.57664529  0.02282879    -0.70000
O1191       O  0.71074234  0.92673340  0.02858636    -0.70600
O1192       O  0.82191563  0.54610312  0.98696361    -0.70200
O1193       O  0.75798579  0.52947087  0.09619570    -0.70800
O1194       O  0.71590382  0.55858014  0.97415851    -0.70200
O1195       O  0.65444327  0.94766773  0.02522472    -0.71000
O1196       O  0.73454214  0.57073323  0.03528363    -0.70400
O1197       O  0.66293778  0.96267879  0.96354197    -0.70800
O1198       O  0.73032581  0.01543938  0.91462232    -0.70700
O1199       O  0.76841854  0.49257834  0.92403070    -0.70500
C1200       C  0.73469428  0.92288062  0.01355629     0.81300
C1201       C  0.73667470  0.50083422  0.11327247     0.81800
C1202       C  0.82706945  0.57534092  0.00111169     0.80700
C1203       C  0.72690224  0.57931187  0.00339365     0.81100
C1204       C  0.64684321  0.93977285  0.98997444     0.82200
C1205       C  0.75272040  0.50215427  0.90053895     0.81300
Zn1206     Zn  0.77822484  0.75652692  0.02320243     1.49700
Zn1207     Zn  0.70322008  0.75159544  0.03237553     1.49400
Zn1208     Zn  0.75529822  0.79601052  0.96162007     1.49100
Zn1209     Zn  0.71556277  0.71705908  0.95985869     1.49500
O1210       O  0.73896037  0.75609280  0.99565112    -1.80000
O1211       O  0.77110320  0.75633231  0.08156163    -0.70600
O1212       O  0.69915861  0.79655840  0.02589998    -0.70400
O1213       O  0.80393923  0.83121469  0.97416760    -0.70000
O1214       O  0.72012409  0.75475286  0.08768382    -0.70600
O1215       O  0.82442712  0.80550721  0.01311020    -0.70200
O1216       O  0.73262596  0.82261055  0.97394555    -0.70800
O1217       O  0.72690234  0.72820596  0.90461676    -0.70200
O1218       O  0.66195280  0.69910518  0.02774287    -0.71000
O1219       O  0.75275513  0.78640867  0.90475557    -0.70400
O1220       O  0.66387413  0.69072335  0.96517577    -0.70800
O1221       O  0.72765058  0.68211448  0.97375040    -0.70700
O1222       O  0.77499016  0.70818291  0.01210460    -0.70500
C1223       C  0.74715100  0.75595393  0.10252081     0.81300
C1224       C  0.71464462  0.82261210  0.00233918     0.81800
C1225       C  0.82815704  0.83264763  0.99495322     0.80700
C1226       C  0.74111678  0.75739462  0.88700935     0.81100
C1227       C  0.65171953  0.67871656  0.99830895     0.82200
C1228       C  0.75080012  0.68103478  0.99413830     0.81300
Zn1229     Zn  0.96715713  0.96284592  0.63549920     1.49700
Zn1230     Zn  0.50267631  0.52214314  0.69693161     1.49400
Zn1231     Zn  0.00227640  0.95049205  0.70803270     1.49100
Zn1232     Zn  0.54147386  0.49819432  0.63570076     1.49500
O1233       O  0.50208993  0.48285302  0.67022515    -1.80000
O1234       O  0.93071285  0.97187637  0.65241868    -0.70600
O1235       O  0.50258238  0.51553365  0.75571692    -0.70400
O1236       O  0.95167005  0.90615172  0.69929720    -0.70000
O1237       O  0.95999504  0.52425590  0.68486072    -0.70600
O1238       O  0.94521078  0.91146740  0.63681058    -0.70200
O1239       O  0.00072989  0.96594678  0.76307052    -0.70800
O1240       O  0.56310482  0.46941272  0.64170067    -0.70200
O1241       O  0.55219399  0.56794642  0.68520441    -0.71000
O1242       O  0.54486441  0.95047667  0.70000911    -0.70400
O1243       O  0.57882124  0.54527837  0.65089664    -0.70800
O1244       O  0.53216828  0.50100314  0.57964507    -0.70700
O1245       O  0.97769115  0.97819532  0.58101515    -0.70500
C1246       C  0.93203822  0.49887825  0.66890505     0.81300
C1247       C  0.50131452  0.49124402  0.77689136     0.81800
C1248       C  0.93252858  0.89663776  0.66877577     0.80700
C1249       C  0.57114725  0.96674062  0.67684856     0.81100
C1250       C  0.57987991  0.57056385  0.66925454     0.82200
C1251       C  0.50308630  0.48969697  0.56219588     0.81300
Zn1252     Zn  0.54245598  0.77945081  0.69430947     1.49700
Zn1253     Zn  0.50863824  0.79736084  0.62336288     1.49400
Zn1254     Zn  0.99710252  0.71725781  0.62868444     1.49100
Zn1255     Zn  0.96234449  0.74360259  0.69375347     1.49500
O1256       O  0.00118048  0.75731081  0.65822899    -1.80000
O1257       O  0.56770499  0.83146671  0.69338256    -0.70600
O1258       O  0.50805670  0.78439760  0.56677374    -0.70400
O1259       O  0.55274708  0.72724947  0.63122543    -0.70000
O1260       O  0.56053794  0.83883104  0.63155172    -0.70600
O1261       O  0.57884764  0.77085584  0.67426675    -0.70200
O1262       O  0.99683905  0.72557773  0.57113360    -0.70800
O1263       O  0.92349732  0.69703318  0.67813279    -0.70200
O1264       O  0.95511039  0.78937066  0.62637214    -0.71000
O1265       O  0.94630526  0.67340150  0.63911290    -0.70400
O1266       O  0.94105620  0.77319604  0.68748208    -0.70800
O1267       O  0.97315914  0.74186656  0.75014044    -0.70700
O1268       O  0.53035805  0.76355489  0.74980585    -0.70500
C1269       C  0.58029170  0.84659777  0.66139074     0.81300
C1270       C  0.00176941  0.75199748  0.55134413     0.81800
C1271       C  0.58034630  0.75093415  0.64904850     0.80700
C1272       C  0.91998871  0.67206180  0.65694510     0.81100
C1273       C  0.93298758  0.77887708  0.65429183     0.82200
C1274       C  0.00205883  0.75076882  0.76719007     0.81300
Zn1275     Zn  0.71911520  0.96337078  0.71345005     1.49700
Zn1276     Zn  0.74635833  0.52680786  0.64524640     1.49400
Zn1277     Zn  0.79657099  0.51895524  0.70725641     1.49100
Zn1278     Zn  0.75993587  0.96196557  0.63928674     1.49500
O1279       O  0.75555940  0.99271045  0.67635357    -1.80000
O1280       O  0.67884346  0.96923622  0.70440603    -0.70600
O1281       O  0.79177817  0.57735512  0.64876872    -0.70400
O1282       O  0.78698797  0.51738121  0.76461110    -0.70000
O1283       O  0.69566234  0.51527628  0.66163310    -0.70600
O1284       O  0.73187867  0.97416398  0.76962613    -0.70200
O1285       O  0.82496705  0.56739944  0.68949675    -0.70800
O1286       O  0.80753663  0.96389986  0.65137499    -0.70200
O1287       O  0.74265544  0.51691133  0.58699805    -0.71000
O1288       O  0.82946424  0.50257282  0.69780127    -0.70400
O1289       O  0.76279910  0.97874850  0.58370277    -0.70800
O1290       O  0.70993064  0.91724724  0.63961867    -0.70700
O1291       O  0.69840319  0.91265667  0.70207062    -0.70500
C1292       C  0.67217728  0.48963962  0.68209601     0.81300
C1293       C  0.82134911  0.58695360  0.66559575     0.81800
C1294       C  0.75921544  0.99896747  0.78571861     0.80700
C1295       C  0.83137632  0.98125171  0.67699789     0.81100
C1296       C  0.75074983  0.99686202  0.56867557     0.82200
C1297       C  0.68821711  0.90353376  0.66760019     0.81300
Zn1298     Zn  0.75006305  0.71301882  0.63413097     1.49700
Zn1299     Zn  0.70897503  0.73459374  0.69544907     1.49400
Zn1300     Zn  0.78684507  0.77118374  0.70018058     1.49100
Zn1301     Zn  0.75473379  0.78825973  0.62795462     1.49500
O1302       O  0.74915572  0.75074380  0.66271518    -1.80000
O1303       O  0.70414157  0.66510075  0.64943813    -0.70600
O1304       O  0.71922030  0.74782179  0.75120847    -0.70400
O1305       O  0.82550074  0.76483358  0.68284472    -0.70000
O1306       O  0.67841853  0.68356757  0.69127631    -0.70600
O1307       O  0.80185068  0.72210853  0.63864068    -0.70200
O1308       O  0.77340049  0.75665805  0.75482502    -0.70800
O1309       O  0.80655066  0.82976547  0.63734185    -0.70200
O1310       O  0.67829078  0.74985446  0.67462995    -0.71000
O1311       O  0.80916922  0.82275951  0.70005878    -0.70400
O1312       O  0.70875102  0.79146405  0.63069628    -0.70800
O1313       O  0.75414787  0.77346503  0.57259815    -0.70700
O1314       O  0.74534178  0.71917733  0.57646895    -0.70500
C1315       C  0.67800051  0.65947977  0.67109975     0.81300
C1316       C  0.74578045  0.75292183  0.77075579     0.81800
C1317       C  0.82860008  0.74600280  0.65743613     0.80700
C1318       C  0.82418194  0.83763783  0.66884163     0.81100
C1319       C  0.67998802  0.77089892  0.64890514     0.82200
C1320       C  0.74905768  0.74523418  0.55669652     0.81300
C1321       C  0.85358179  0.61921338  0.65615080    -0.09100
C1322       C  0.88436414  0.64234237  0.65351629    -0.10700
C1323       C  0.65048485  0.88265331  0.66029605    -0.09100
C1324       C  0.61845838  0.86835870  0.65839482    -0.10700
C1325       C  0.89632065  0.76807013  0.64807854    -0.09100
C1326       C  0.86445087  0.75498033  0.64916299    -0.10700
C1327       C  0.61538974  0.75795686  0.64027307    -0.09100
C1328       C  0.64663881  0.76788038  0.63987163    -0.10700
C1329       C  0.89450643  0.87366116  0.67061098    -0.09100
C1330       C  0.86245699  0.85888200  0.66896820    -0.10700
C1331       C  0.61437653  0.60214006  0.67174450    -0.09100
C1332       C  0.64483740  0.62631698  0.67118533    -0.10700
C1333       C  0.89794174  0.49577336  0.67121354    -0.09100
C1334       C  0.86587662  0.98516747  0.67485544    -0.10700
C1335       C  0.63561651  0.47984234  0.68154924    -0.09100
C1336       C  0.60464124  0.96959160  0.68372283    -0.10700
C1337       C  0.74372892  0.75718158  0.84609719    -0.09100
C1338       C  0.74479043  0.75517182  0.81165819    -0.10700
C1339       C  0.72715382  0.88704410  0.01181929    -0.09100
C1340       C  0.71721087  0.85593439  0.00956632    -0.10700
C1341       C  0.73563956  0.61534428  0.99970844    -0.09100
C1342       C  0.74635237  0.64660641  0.99809355    -0.10700
C1343       C  0.75753921  0.50045428  0.85965653    -0.09100
C1344       C  0.75896276  0.00317256  0.82687274    -0.10700
C1345       C  0.88008477  0.63996633  0.98769913    -0.09100
C1346       C  0.85744662  0.60913165  0.99137591    -0.10700
C1347       C  0.62429545  0.90280322  0.98034721    -0.09100
C1348       C  0.60751332  0.87076220  0.97862525    -0.10700
C1349       C  0.00222180  0.74706291  0.80842166    -0.09100
C1350       C  0.00240132  0.74608323  0.84324358    -0.10700
C1351       C  0.85914964  0.86729350  0.99903033    -0.09100
C1352       C  0.88240885  0.89803101  0.00112430    -0.10700
C1353       C  0.61671554  0.60867100  0.00381222    -0.09100
C1354       C  0.63080611  0.64065811  0.00257241    -0.10700
C1355       C  0.51231200  0.88885796  0.98859523    -0.09100
C1356       C  0.99669104  0.85731950  0.98496934    -0.10700
C1357       C  0.52430928  0.64900250  0.97982089    -0.09100
C1358       C  0.01936302  0.61966138  0.98677896    -0.10700
C1359       C  0.00646837  0.50073996  0.85539927    -0.09100
C1360       C  0.00580328  0.49968372  0.82028709    -0.10700
C1361       C  0.74840677  0.74387676  0.48017044    -0.09100
C1362       C  0.74793014  0.74318150  0.51510558    -0.10700
C1363       C  0.75332336  0.75781496  0.17909849    -0.09100
C1364       C  0.75065446  0.75691098  0.14417003    -0.10700
C1365       C  0.74874121  0.99840136  0.52693873    -0.09100
C1366       C  0.74750377  0.99928228  0.49194191    -0.10700
C1367       C  0.75658494  0.89175438  0.35663293    -0.09100
C1368       C  0.76978464  0.87336020  0.35488918    -0.10700
C1369       C  0.76012763  0.62003591  0.34465449    -0.09100
C1370       C  0.75015319  0.64104396  0.34177969    -0.10700
C1371       C  0.73954354  0.49797434  0.15409544    -0.09100
C1372       C  0.74155657  0.49604943  0.18859314    -0.10700
C1373       C  0.00377565  0.74985061  0.47496092    -0.09100
C1374       C  0.00298270  0.75056095  0.50983942    -0.10700
C1375       C  0.87137215  0.75680598  0.34225062    -0.09100
C1376       C  0.88792719  0.74152164  0.34167618    -0.10700
C1377       C  0.62276040  0.76644818  0.34032162    -0.09100
C1378       C  0.64441188  0.75717006  0.34059858    -0.10700
C1379       C  0.00609188  0.74755296  0.14128045    -0.09100
C1380       C  0.00555922  0.74674479  0.17598446    -0.10700
C1381       C  0.50182135  0.99496601  0.48728161    -0.09100
C1382       C  0.50577388  0.99673494  0.52157024    -0.10700
C1383       C  0.97749933  0.87260973  0.32991869    -0.09100
C1384       C  0.49284699  0.85565468  0.32461015    -0.10700
C1385       C  0.49927492  0.60362502  0.33160617    -0.09100
C1386       C  0.98932700  0.62571109  0.33221027    -0.10700
C1387       C  0.86030697  0.50385790  0.33795051    -0.09100
C1388       C  0.87357426  0.98447992  0.33986641    -0.10700
C1389       C  0.60098205  0.48306736  0.34152077    -0.09100
C1390       C  0.62451613  0.97774816  0.34231430    -0.10700
C1391       C  0.00576570  0.50276564  0.15888365    -0.09100
C1392       C  0.00242209  0.50054154  0.19375906    -0.10700
loop_ 
_geom_bond_atom_site_label_1 
_geom_bond_atom_site_label_2 
_geom_bond_distance 
_geom_bond_site_symmetry_2 
_ccdc_geom_bond_type 
Zn1          O10   1.994       .  S
Zn1         O702   1.931       .  S
Zn1         O365   1.971   1_545  S
Zn1         O701   1.926   1_545  S
Zn2           O7   2.142       .  S
Zn2           O9   2.127       .  S
Zn2          O13   2.053       .  S
Zn2           O5   1.952   1_445  S
Zn3           O8   1.989   1_655  S
Zn3         O359   1.938   1_655  S
Zn3         O710   1.958       .  S
Zn3         O353   1.928       .  S
Zn4          O12   2.102       .  S
Zn4          O15   2.037       .  S
Zn4          O16   2.119       .  S
Zn4        O1049   1.947       .  S
O5         Zn697   1.927   1_565  S
O5         Zn351   1.929       .  S
O5        Zn1048   1.948       .  S
O6         Zn697   1.926       .  S
O6           C18   1.261       .  A
O7           C19   1.293   1_545  A
O8           C20   1.266   1_455  A
O9           C18   1.291   1_455  A
O10        C1064   1.266   1_545  A
O11        Zn351   1.951   1_455  S
O11          C19   1.264       .  A
O12          C21   1.283       .  A
O13         C718   1.275   1_445  A
O14        Zn699   1.956       .  S
O14          C21   1.264       .  A
O15         C370   1.273       .  A
O16          C23   1.286       .  A
O17        Zn349   1.968       .  S
O17          C23   1.266       .  A
C18         C341   1.443       .  S
C19         C345   1.452       .  S
C20        O1054   1.267       .  A
C20         C337   1.425   1_655  S
C21         C339   1.451       .  S
C22         O709   1.275   1_565  A
C22         O363   1.272       .  A
C22         C348   1.449   1_565  S
C23         C344   1.457       .  S
Zn24         O29   2.007       .  S
Zn24         O40   1.937       .  S
Zn24        O729   1.943       .  S
Zn24        O724   1.929       .  S
Zn25         O30   1.982       .  S
Zn25         O32   2.013       .  S
Zn25        O732   1.952       .  S
Zn25         O28   1.952       .  S
Zn26         O31   2.103       .  S
Zn26         O34   2.085       .  S
Zn26         O37   2.021       .  S
Zn26         O28   1.958       .  S
Zn27         O35   2.039       .  S
Zn27         O38   2.124       .  S
Zn27         O39   2.126       .  S
Zn27        O724   1.972       .  S
O28        Zn720   1.930       .  S
O28        Zn723   1.973       .  S
O29         C737   1.268       .  A
O30          C42   1.268       .  A
O31          C43   1.287       .  A
O32          C41   1.269       .  A
O33        Zn720   1.947       .  S
O33          C43   1.264       .  A
O34          C42   1.279       .  A
O35         C740   1.273       .  A
O36        Zn721   1.958       .  S
O36          C45   1.264   1_655  A
O37          C44   1.271       .  A
O38          C45   1.289       .  A
O39          C46   1.288       .  A
O40          C46   1.261       .  A
C41         O725   1.269       .  A
C41         C336   1.436       .  S
C42         C332   1.456       .  S
C43         C342   1.442       .  S
C44         O731   1.273       .  A
C44         C329   1.444       .  S
C45         C340   1.453   1_455  S
C46         C333   1.448       .  S
Zn47         O52   2.015       .  S
Zn47         O56   1.958       .  S
Zn47        O411   1.966       .  S
Zn47        O399   1.951       .  S
Zn48         O55   1.999       .  S
Zn48         O59   1.936       .  S
Zn48        O401   1.935   1_545  S
Zn48         O51   1.921       .  S
Zn49         O54   2.124       .  S
Zn49         O57   2.124       .  S
Zn49         O60   2.050       .  S
Zn49        O399   1.972       .  S
Zn50         O58   2.046       .  S
Zn50         O61   2.124       .  S
Zn50         O62   2.109       .  S
Zn50         O51   1.968       .  S
O51        Zn395   1.951   1_545  S
O51        Zn397   1.970   1_545  S
O52         C412   1.269       .  A
O53        Zn396   1.924       .  S
O53          C65   1.260       .  A
O54          C66   1.288       .  A
O55          C64   1.267   1_545  A
O56          C66   1.265       .  A
O57          C65   1.289       .  A
O58          C67   1.274       .  A
O59          C68   1.262       .  A
O60         C415   1.274       .  A
O61          C68   1.289       .  A
O62          C69   1.282       .  A
O63        Zn395   1.966   1_545  S
O63          C69   1.264       .  A
C64         O400   1.270       .  A
C64         C328   1.431       .  S
C65         C346   1.443       .  S
C66         C323   1.451       .  S
C67         O408   1.275   1_545  A
C67         C670   1.456       .  S
C68         C325   1.447       .  S
C69         C343   1.457       .  S
Zn70         O75   1.980       .  S
Zn70         O79   2.039       .  S
Zn70         O86   1.956       .  S
Zn70         O74   1.944       .  S
Zn71         O76   2.091       .  S
Zn71         O78   2.096       .  S
Zn71         O82   2.023       .  S
Zn71         O74   1.955       .  S
Zn72         O77   2.039       .  S
Zn72         O80   1.974       .  S
Zn72         O83   1.968       .  S
Zn72         O74   1.945       .  S
Zn73         O81   2.120       .  S
Zn73         O84   2.040       .  S
Zn73         O85   2.112       .  S
Zn73         O74   1.973       .  S
O75          C87   1.269       .  A
O76          C88   1.282       .  A
O77          C89   1.273       .  A
O78          C87   1.284       .  A
O79          C89   1.273       .  A
O80          C88   1.268       .  A
O81          C90   1.289       .  A
O82          C91   1.269       .  A
O83          C90   1.266       .  A
O84          C91   1.271       .  A
O85          C92   1.288       .  A
O86          C92   1.265       .  A
C87         C331   1.454       .  S
C88         C324   1.452       .  S
C89         C319   1.449       .  S
C90         C334   1.452       .  S
C91         C317   1.447       .  S
C92         C326   1.449       .  S
Zn93         O98   2.050       .  S
Zn93        O109   2.108       .  S
Zn93        O450   2.116       .  S
Zn93        O445   1.968   1_556  S
Zn94         O99   2.095       .  S
Zn94        O101   2.041       .  S
Zn94        O453   2.107   1_545  S
Zn94        O793   1.971   1_556  S
Zn95        O100   1.984       .  S
Zn95        O103   1.967       .  S
Zn95        O106   2.047       .  S
Zn95        O793   1.954       .  S
Zn96        O104   2.037       .  S
Zn96        O107   1.966       .  S
Zn96        O108   1.947       .  S
Zn96        O445   1.934       .  S
O97        Zn441   1.965   1_554  S
O97        Zn790   1.970   1_554  S
O97        Zn791   1.952       .  S
O97        Zn444   1.938   1_545  S
O98         C458   1.273       .  A
O99         C111   1.282   1_556  A
O100        C808   1.269   1_554  A
O101        C806   1.272   1_545  A
O102       Zn441   2.107       .  S
O102        C112   1.287       .  A
O103        C111   1.265       .  A
O104        C461   1.272       .  A
O105       Zn442   2.105       .  S
O105        C114   1.286       .  A
O106        C809   1.274   1_545  A
O107        C810   1.266   1_554  A
O108        C115   1.264       .  A
O109        C115   1.288   1_556  A
C110        O446   1.273       .  A
C110        O797   1.273       .  A
C110        C315   1.456       .  S
C111        C309   1.453       .  S
C112        O796   1.269   1_556  A
C112        C314   1.452       .  S
C113        O452   1.272   1_545  A
C113        O802   1.272       .  A
C113        C347   1.449       .  S
C114        O803   1.267   1_556  A
C114        C311   1.452       .  S
C115        C308   1.444       .  S
Zn116       O121   2.110       .  S
Zn116       O125   2.025       .  S
Zn116       O132   2.093       .  S
Zn116       O816   1.964       .  S
Zn117       O122   1.934       .  S
Zn117       O124   1.941       .  S
Zn117       O128   2.011       .  S
Zn117       O816   1.918   1_554  S
Zn118       O123   2.024       .  S
Zn118       O126   2.118       .  S
Zn118       O129   2.112       .  S
Zn118       O120   1.972       .  S
Zn119       O127   1.956       .  S
Zn119       O130   2.010       .  S
Zn119       O131   1.972   1_455  S
Zn119       O120   1.944   1_554  S
O120       Zn812   1.965   1_455  S
O120       Zn813   1.914   1_456  S
O121        C133   1.287       .  A
O122        C830   1.261   1_554  A
O123        C135   1.271       .  A
O124        C133   1.263   1_554  A
O125        C831   1.272       .  A
O126        C134   1.287       .  A
O127        C136   1.265   1_554  A
O128        C833   1.268       .  A
O129        C136   1.286       .  A
O130        C137   1.269       .  A
O131        C834   1.266   1_554  A
O132        C138   1.279       .  A
C133        C301   1.444       .  S
C134        O818   1.261   1_556  A
C134        C313   1.445       .  S
C135        O821   1.272   1_455  A
C135       C1002   1.440   1_455  S
C136        C304   1.447       .  S
C137        O824   1.268   1_455  A
C137       C1031   1.432       .  S
C138        O827   1.266   1_556  A
C138        C312   1.455       .  S
Zn139       O148   2.103   1_565  S
Zn139       O155   2.029       .  S
Zn139       O492   2.101       .  S
Zn139       O143   1.943   1_566  S
Zn140       O145   2.006       .  S
Zn140       O147   1.934       .  S
Zn140       O151   1.968       .  S
Zn140       O491   1.925       .  S
Zn141       O146   1.950       .  S
Zn141       O149   2.016       .  S
Zn141       O152   1.959       .  S
Zn141       O143   1.908       .  S
Zn142       O153   2.071       .  S
Zn142       O154   2.025       .  S
Zn142       O498   2.073       .  S
Zn142       O491   1.930   1_556  S
O143       Zn488   1.925   1_545  S
O143       Zn490   1.932   1_554  S
O144       Zn487   2.099       .  S
O144        C156   1.289   1_556  A
O145        C505   1.268       .  A
O146        C158   1.264       .  A
O147        C156   1.263       .  A
O148        C158   1.286   1_556  A
O149        C157   1.271   1_545  A
O150       Zn490   2.065       .  S
O150        C159   1.282   1_556  A
O151        C160   1.267   1_554  A
O152        C159   1.268       .  A
O153        C160   1.277       .  A
O154        C509   1.272       .  A
O155        C161   1.272   1_565  A
C156        C295   1.435       .  S
C157        O493   1.268       .  A
C157        C327   1.432       .  S
C158        C302   1.445   1_554  S
C159        C297   1.434       .  S
C160        C303   1.449       .  S
C161        O502   1.271       .  A
C161        C299   1.440       .  S
Zn162       O167   2.045       .  S
Zn162       O171   2.109       .  S
Zn162       O178   2.094       .  S
Zn162       O166   1.964   1_554  S
Zn163       O168   2.081       .  S
Zn163       O170   2.034       .  S
Zn163       O174   2.092       .  S
Zn163       O166   1.953   1_554  S
Zn164       O169   1.946       .  S
Zn164       O172   1.931       .  S
Zn164       O175   2.012       .  S
Zn164       O166   1.921       .  S
Zn165       O173   1.985       .  S
Zn165       O176   1.970       .  S
Zn165       O177   1.927       .  S
Zn165       O166   1.935       .  S
O167        C179   1.274       .  A
O168        C180   1.284       .  A
O169        C181   1.262       .  A
O170        C179   1.272       .  A
O171        C181   1.286   1_554  A
O172        C180   1.264   1_556  A
O173        C182   1.265       .  A
O174        C183   1.280       .  A
O175        C182   1.268       .  A
O176        C183   1.265   1_556  A
O177        C184   1.261       .  A
O178        C184   1.286   1_554  A
C179        C320   1.449       .  S
C180        C296   1.431       .  S
C181        C307   1.445   1_556  S
C182        C293   1.428       .  S
C183        C310   1.453       .  S
C184        C298   1.432   1_556  S
Zn185       O190   1.931       .  S
Zn185       O194   1.960       .  S
Zn185       O201   1.980       .  S
Zn185      O1233   1.926       .  S
Zn186       O191   2.059       .  S
Zn186       O197   2.124       .  S
Zn186       O889   2.121   1_455  S
Zn186       O189   1.947   1_545  S
Zn187       O192   2.096       .  S
Zn187       O195   2.036       .  S
Zn187       O894   2.082       .  S
Zn187      O1233   1.948       .  S
Zn188       O196   1.959       .  S
Zn188       O199   1.952   1_565  S
Zn188       O200   2.008   1_565  S
Zn188       O189   1.932       .  S
O189      Zn1229   1.915   1_455  S
O189      Zn1231   1.951       .  S
O190        C550   1.262       .  A
O191        C203   1.276   1_545  A
O192        C204   1.280       .  A
O193       Zn882   2.117       .  S
O193        C202   1.289       .  A
O194        C204   1.263       .  A
O195       C1247   1.273       .  A
O196        C553   1.264       .  A
O197        C206   1.291       .  A
O198       Zn883   2.082       .  S
O198        C205   1.281       .  A
O199        C206   1.265       .  A
O200        C207   1.267   1_545  A
O201       C1251   1.264       .  A
C202        O538   1.263   1_545  A
C202        C289   1.444   1_545  S
C203       O1239   1.273       .  A
C203       C1012   1.455       .  S
C204        C285   1.449       .  S
C205        O544   1.263       .  A
C205        C292   1.441       .  S
C206        C287   1.446       .  S
C207       O1245   1.264   1_455  A
C207        C686   1.425       .  S
Zn208       O213   1.972       .  S
Zn208       O217   1.951       .  S
Zn208       O224   2.021       .  S
Zn208       O908   1.939       .  S
Zn209       O214   2.035       .  S
Zn209       O216   2.094       .  S
Zn209       O916   2.095   1_455  S
Zn209       O908   1.960       .  S
Zn210       O218   2.025       .  S
Zn210       O221   2.109       .  S
Zn210       O911   2.105       .  S
Zn210       O212   1.957       .  S
Zn211       O219   1.955       .  S
Zn211       O222   1.966       .  S
Zn211       O223   2.025       .  S
Zn211       O212   1.925       .  S
O212       Zn904   1.926       .  S
O212       Zn905   1.953       .  S
O213        C225   1.267       .  A
O214        C922   1.272       .  A
O215       Zn906   2.100   1_455  S
O215        C227   1.286       .  A
O216        C225   1.282       .  A
O217        C227   1.264       .  A
O218        C226   1.270       .  A
O219        C228   1.265       .  A
O220       Zn905   2.088       .  S
O220        C229   1.282       .  A
O221        C228   1.288       .  A
O222        C229   1.267       .  A
O223        C230   1.270       .  A
O224        C926   1.270   1_455  A
C225        C280   1.451       .  S
C226        O910   1.271       .  A
C226        C330   1.444       .  S
C227        C283   1.443       .  S
C228        C278   1.445       .  S
C229        C281   1.447       .  S
C230        O920   1.270       .  A
C230        C305   1.442       .  S
Zn231       O236   1.937       .  S
Zn231       O240   2.018       .  S
Zn231       O247   1.981       .  S
Zn231       O235   1.945       .  S
Zn232       O237   2.097       .  S
Zn232       O239   2.091       .  S
Zn232       O243   2.044       .  S
Zn232       O583   1.961       .  S
Zn233       O238   2.036       .  S
Zn233       O241   1.947       .  S
Zn233       O244   1.954       .  S
Zn233       O583   1.925       .  S
Zn234       O242   2.093       .  S
Zn234       O245   2.040       .  S
Zn234       O246   2.078       .  S
Zn234       O235   1.949       .  S
O235       Zn580   1.968       .  S
O235       Zn581   1.926       .  S
O236        C596   1.262       .  A
O237        C249   1.286       .  A
O238        C598   1.272       .  A
O239        C248   1.282       .  A
O240        C250   1.270       .  A
O241        C249   1.264       .  A
O242        C251   1.286       .  A
O243        C600   1.273       .  A
O244        C599   1.265   1_545  A
O245        C252   1.273       .  A
O246        C253   1.278       .  A
O247        C253   1.268       .  A
C248        O584   1.265       .  A
C248        C291   1.450   1_545  S
C249        C277   1.442       .  S
C250        O586   1.271       .  A
C250        C300   1.442       .  S
C251        O592   1.265       .  A
C251        C290   1.437       .  S
C252        O591   1.274       .  A
C252        C321   1.453       .  S
C253        C279   1.452       .  S
Zn254       O259   2.112       .  S
Zn254       O263   2.114       .  S
Zn254       O270   2.049       .  S
Zn254       O258   1.952       .  S
Zn255       O260   2.012       .  S
Zn255       O262   1.943       .  S
Zn255       O266   1.945       .  S
Zn255       O258   1.908       .  S
Zn256       O261   1.960       .  S
Zn256       O264   1.998       .  S
Zn256       O267   1.958       .  S
Zn256       O258   1.932       .  S
Zn257       O265   2.089       .  S
Zn257       O268   2.097       .  S
Zn257       O269   2.023       .  S
Zn257       O258   1.961       .  S
O259        C271   1.289       .  A
O260        C272   1.270       .  A
O261        C273   1.266       .  A
O262        C271   1.264       .  A
O263        C273   1.287       .  A
O264        C272   1.268       .  A
O265        C274   1.280       .  A
O266        C275   1.263       .  A
O267        C274   1.263       .  A
O268        C275   1.285       .  A
O269        C276   1.272       .  A
O270        C276   1.275       .  A
C271        C288   1.443       .  S
C272        C294   1.428       .  S
C273        C282   1.448       .  S
C274        C286   1.450       .  S
C275        C284   1.442       .  S
C276        C318   1.446       .  S
C277        C278   1.213       .  T
C279        C280   1.217       .  T
C281        C282   1.215       .  T
C283        C284   1.213       .  T
C285        C286   1.216       .  T
C287        C288   1.214       .  T
C289        C638   1.214       .  T
C290        C637   1.210       .  T
C291        C640   1.216       .  T
C292        C639   1.211       .  T
C293        C294   1.203       .  T
C295        C296   1.207       .  T
C297        C298   1.208       .  T
C299        C648   1.209       .  T
C300        C647   1.211       .  T
C301        C302   1.214       .  T
C303        C304   1.216       .  T
C305        C306   1.210       .  T
C306        C831   1.442       .  S
C307        C308   1.214       .  T
C309        C310   1.218       .  T
C311       C1008   1.218       .  T
C312       C1007   1.219       .  T
C313       C1010   1.216       .  T
C314       C1009   1.217       .  T
C315        C316   1.218   1_545  T
C316        C899   1.456       .  S
C317        C318   1.213       .  T
C319        C320   1.215       .  T
C321        C322   1.216       .  T
C322        C415   1.453       .  S
C323        C324   1.218       .  T
C325        C326   1.217       .  T
C327        C328   1.205       .  T
C329        C330   1.212       .  T
C331        C332   1.220       .  T
C333        C334   1.217       .  T
C335        C833   1.436       .  S
C335        C336   1.206       .  T
C337        C338   1.200       .  T
C338        C555   1.425       .  S
C339       C1036   1.217       .  T
C340       C1035   1.219       .  T
C341       C1038   1.214       .  T
C342       C1037   1.213       .  T
C343        C692   1.221   1_545  T
C344        C691   1.221       .  T
C345        C694   1.218       .  T
C346        C693   1.215       .  T
C347        C348   1.213       .  T
Zn349      O1050   1.929       .  S
Zn349       O358   1.996       .  S
Zn349      O1049   1.930       .  S
Zn350       O355   2.134       .  S
Zn350       O357   2.126       .  S
Zn350       O361   2.052       .  S
Zn350       O353   1.953   1_455  S
Zn351       O356   1.991   1_655  S
Zn351      O1058   1.953       .  S
Zn352       O360   2.096       .  S
Zn352       O363   2.029       .  S
Zn352       O364   2.111       .  S
Zn352       O701   1.942       .  S
O353      Zn1045   1.928       .  S
O353       Zn700   1.943       .  S
O354      Zn1045   1.932       .  S
O354        C366   1.261   1_655  A
O355        C367   1.292       .  A
O356        C368   1.266   1_455  A
O357        C366   1.290       .  A
O358        C716   1.266       .  A
O359        C367   1.262       .  A
O360        C369   1.282       .  A
O361       C1066   1.275   1_455  A
O362      Zn1047   1.954       .  S
O362        C369   1.264       .  A
O364        C371   1.285       .  A
O365        C371   1.267       .  A
C366        C689   1.444   1_455  S
C367        C693   1.446       .  S
C368        O706   1.266   1_565  A
C368        C685   1.425   1_655  S
C369        C687   1.449       .  S
C370       O1057   1.275       .  A
C370        C696   1.452       .  S
C371        C692   1.456       .  S
Zn372       O377   2.010       .  S
Zn372      O1077   1.949       .  S
Zn372       O388   1.941       .  S
Zn372      O1072   1.930       .  S
Zn373       O378   1.975       .  S
Zn373       O380   2.006       .  S
Zn373      O1080   1.949       .  S
Zn373       O376   1.948       .  S
Zn374       O379   2.109       .  S
Zn374       O382   2.090       .  S
Zn374       O385   2.031       .  S
Zn374       O376   1.954       .  S
Zn375       O383   2.040       .  S
Zn375       O386   2.116       .  S
Zn375       O387   2.118       .  S
Zn375      O1072   1.974       .  S
O376      Zn1068   1.927       .  S
O376      Zn1071   1.971       .  S
O377       C1085   1.268       .  A
O378        C390   1.267       .  A
O379        C391   1.287       .  A
O380        C389   1.268       .  A
O381      Zn1068   1.946       .  S
O381        C391   1.263       .  A
O382        C390   1.280       .  A
O383       C1088   1.273       .  A
O384      Zn1069   1.947       .  S
O384        C393   1.263   1_655  A
O385        C392   1.272       .  A
O386        C393   1.288       .  A
O387        C394   1.287       .  A
O388        C394   1.262       .  A
C389       O1073   1.266       .  A
C389        C684   1.428       .  S
C390        C680   1.455       .  S
C391        C690   1.445       .  S
C392       O1079   1.273       .  A
C392        C677   1.447       .  S
C393        C688   1.447   1_455  S
C394        C681   1.447       .  S
Zn395       O400   2.016       .  S
Zn395       O404   1.953       .  S
Zn396       O403   1.998       .  S
Zn396       O407   1.936       .  S
Zn396       O399   1.922       .  S
Zn397       O402   2.122       .  S
Zn397       O405   2.134       .  S
Zn397       O408   2.056       .  S
Zn398       O406   2.044       .  S
Zn398       O409   2.127       .  S
Zn398       O410   2.112       .  S
Zn398       O399   1.967       .  S
O401        C413   1.261       .  A
O402        C414   1.288       .  A
O403        C412   1.267       .  A
O404        C414   1.265       .  A
O405        C413   1.290       .  A
O406        C415   1.273       .  A
O407        C416   1.261       .  A
O409        C416   1.289       .  A
O410        C417   1.283       .  A
O411        C417   1.264       .  A
C412        C676   1.431       .  S
C413        C694   1.449       .  S
C414        C671   1.449       .  S
C416        C673   1.449       .  S
C417        C691   1.458       .  S
Zn418       O423   1.982       .  S
Zn418       O427   2.041       .  S
Zn418       O434   1.961       .  S
Zn418       O422   1.944       .  S
Zn419       O424   2.087       .  S
Zn419       O426   2.095       .  S
Zn419       O430   2.016       .  S
Zn419       O422   1.955       .  S
Zn420       O425   2.035       .  S
Zn420       O428   1.971       .  S
Zn420       O431   1.970       .  S
Zn420       O422   1.944       .  S
Zn421       O429   2.113       .  S
Zn421       O432   2.034       .  S
Zn421       O433   2.107       .  S
Zn421       O422   1.973       .  S
O423        C435   1.269       .  A
O424        C436   1.281       .  A
O425        C437   1.272       .  A
O426        C435   1.283       .  A
O427        C437   1.273       .  A
O428        C436   1.268       .  A
O429        C438   1.288       .  A
O430        C439   1.269       .  A
O431        C438   1.266       .  A
O432        C439   1.270       .  A
O433        C440   1.287       .  A
O434        C440   1.265       .  A
C435        C679   1.454       .  S
C436        C672   1.450       .  S
C437        C667   1.448       .  S
C438        C682   1.451       .  S
C439        C665   1.443       .  S
C440        C674   1.450       .  S
Zn441       O446   2.048       .  S
Zn441       O457   2.103   1_545  S
Zn442       O447   2.092       .  S
Zn442       O449   2.044       .  S
Zn442      O1141   1.970   1_556  S
Zn443       O448   1.986       .  S
Zn443       O451   1.969       .  S
Zn443       O454   2.054       .  S
Zn443      O1141   1.955       .  S
Zn444       O452   2.036       .  S
Zn444       O455   1.965       .  S
Zn444       O456   1.949       .  S
O445      Zn1138   1.971   1_554  S
O445      Zn1139   1.951       .  S
O447        C459   1.282   1_556  A
O448       C1156   1.269   1_554  A
O449       C1154   1.272       .  A
O450        C460   1.288       .  A
O451        C459   1.266       .  A
O453        C462   1.286       .  A
O454       C1157   1.274       .  A
O455       C1158   1.267   1_554  A
O456        C463   1.264       .  A
O457        C463   1.287   1_556  A
C458       O1145   1.272       .  A
C458        C663   1.453       .  S
C459        C657   1.451       .  S
C460       O1144   1.269   1_556  A
C460        C662   1.456       .  S
C461       O1150   1.274       .  A
C461        C695   1.452       .  S
C462       O1151   1.266   1_556  A
C462        C659   1.452       .  S
C463        C656   1.443       .  S
Zn464       O469   2.106       .  S
Zn464       O473   2.022       .  S
Zn464       O480   2.098       .  S
Zn464      O1164   1.964       .  S
Zn465       O470   1.935       .  S
Zn465       O472   1.937       .  S
Zn465       O476   2.002       .  S
Zn465      O1164   1.917   1_554  S
Zn466       O471   2.030       .  S
Zn466       O474   2.120       .  S
Zn466       O477   2.109       .  S
Zn466       O468   1.974       .  S
Zn467       O475   1.954       .  S
Zn467       O478   2.007       .  S
Zn467       O479   1.971   1_455  S
Zn467       O468   1.945   1_554  S
O468      Zn1160   1.963   1_455  S
O468      Zn1161   1.918   1_456  S
O469        C481   1.287       .  A
O470       C1178   1.261   1_554  A
O471        C483   1.272       .  A
O472        C481   1.262   1_554  A
O473       C1179   1.272       .  A
O474        C482   1.287       .  A
O475        C484   1.265   1_554  A
O476       C1181   1.268       .  A
O477        C484   1.286       .  A
O478        C485   1.269       .  A
O479       C1182   1.265   1_554  A
O480        C486   1.279       .  A
C481        C649   1.441       .  S
C482       O1166   1.261   1_556  A
C482        C661   1.446       .  S
C483       O1169   1.271   1_455  A
C483       C1350   1.440       .  S
C484        C652   1.445       .  S
C485       O1172   1.269   1_455  A
C485       C1379   1.433       .  S
C486       O1175   1.265   1_556  A
C486        C660   1.457       .  S
Zn487       O496   2.103       .  S
Zn487       O503   2.034       .  S
Zn487       O491   1.943   1_556  S
Zn488       O493   2.003       .  S
Zn488       O495   1.940       .  S
Zn488       O499   1.967       .  S
Zn489       O494   1.939       .  S
Zn489       O497   2.010       .  S
Zn489       O500   1.958       .  S
Zn489       O491   1.904       .  S
Zn490       O501   2.068   1_545  S
Zn490       O502   2.019       .  S
O492        C504   1.289   1_556  A
O494        C506   1.262       .  A
O495        C504   1.263       .  A
O496        C506   1.286   1_556  A
O497        C505   1.270       .  A
O498        C507   1.284   1_556  A
O499        C508   1.267   1_554  A
O500        C507   1.268       .  A
O501        C508   1.276       .  A
O503        C509   1.273       .  A
C504        C643   1.436       .  S
C505        C675   1.431       .  S
C506        C650   1.442   1_554  S
C507        C645   1.436       .  S
C508        C651   1.447       .  S
C509        C647   1.443       .  S
Zn510       O515   2.039       .  S
Zn510       O519   2.108       .  S
Zn510       O526   2.099       .  S
Zn510       O514   1.962   1_554  S
Zn511       O516   2.083       .  S
Zn511       O518   2.039       .  S
Zn511       O522   2.087       .  S
Zn511       O514   1.957   1_554  S
Zn512       O517   1.949       .  S
Zn512       O520   1.933       .  S
Zn512       O523   2.015       .  S
Zn512       O514   1.920       .  S
Zn513       O521   1.985       .  S
Zn513       O524   1.969       .  S
Zn513       O525   1.926       .  S
Zn513       O514   1.934       .  S
O515        C527   1.273       .  A
O516        C528   1.284       .  A
O517        C529   1.263       .  A
O518        C527   1.273       .  A
O519        C529   1.287   1_554  A
O520        C528   1.263   1_556  A
O521        C530   1.265       .  A
O522        C531   1.279   1_554  A
O523        C530   1.269       .  A
O524        C531   1.265       .  A
O525        C532   1.261       .  A
O526        C532   1.286   1_554  A
C527        C668   1.448       .  S
C528        C644   1.432       .  S
C529        C655   1.445   1_556  S
C530        C641   1.428       .  S
C531        C658   1.452       .  S
C532        C646   1.434   1_556  S
Zn533       O538   1.945       .  S
Zn533       O542   1.963       .  S
Zn533       O549   1.978       .  S
Zn533       O885   1.934       .  S
Zn534       O539   2.071       .  S
Zn534      O1237   2.124   1_455  S
Zn534       O545   2.130       .  S
Zn534       O537   1.945       .  S
Zn535       O540   2.106       .  S
Zn535       O543   2.041       .  S
Zn535      O1242   2.094       .  S
Zn535       O885   1.959       .  S
Zn536       O544   1.950       .  S
Zn536       O547   1.952       .  S
Zn536       O548   2.008       .  S
Zn536       O537   1.927       .  S
O537       Zn881   1.919   1_455  S
O537       Zn883   1.951       .  S
O539        C551   1.277       .  A
O540        C552   1.282       .  A
O541      Zn1230   2.113       .  S
O541        C550   1.289       .  A
O542        C552   1.263       .  A
O543        C899   1.274       .  A
O545        C554   1.292       .  A
O546      Zn1231   2.094       .  S
O546        C553   1.282       .  A
O547        C554   1.265       .  A
O548        C555   1.267       .  A
O549        C903   1.264       .  A
C550        C637   1.438       .  S
C551        O891   1.272       .  A
C551       C1360   1.456       .  S
C552        C633   1.452       .  S
C553        C640   1.449       .  S
C554        C635   1.447       .  S
C555        O897   1.263   1_455  A
Zn556       O561   1.960       .  S
Zn556       O565   1.941       .  S
Zn556       O572   2.017       .  S
Zn556      O1256   1.925       .  S
Zn557       O562   2.023       .  S
Zn557       O564   2.088       .  S
Zn557      O1264   2.086   1_455  S
Zn557      O1256   1.950       .  S
Zn558      O1259   2.099       .  S
Zn558       O566   2.026       .  S
Zn558       O569   2.109       .  S
Zn558       O560   1.967       .  S
Zn559       O567   1.950       .  S
Zn559       O570   1.944       .  S
Zn559       O571   2.020       .  S
Zn559       O560   1.925       .  S
O560      Zn1252   1.940       .  S
O560      Zn1253   1.961       .  S
O561        C573   1.266       .  A
O562       C1270   1.270       .  A
O563      Zn1254   2.112   1_455  S
O563        C575   1.287       .  A
O564        C573   1.283       .  A
O565        C575   1.262       .  A
O566        C574   1.270       .  A
O567        C576   1.263       .  A
O568      Zn1253   2.097       .  S
O568        C577   1.285       .  A
O569        C576   1.287       .  A
O570        C577   1.265       .  A
O571        C578   1.269       .  A
O572       C1274   1.269       .  A
C573        C628   1.444       .  S
C574       O1258   1.272       .  A
C574        C678   1.447       .  S
C575        C631   1.445       .  S
C576        C626   1.446       .  S
C577        C629   1.442       .  S
C578       O1268   1.270       .  A
C578        C653   1.440       .  S
Zn579       O584   1.970   1_565  S
Zn579       O588   2.011       .  S
Zn579       O595   1.955       .  S
Zn579       O583   1.938   1_565  S
Zn580       O585   2.108       .  S
Zn580       O587   2.102       .  S
Zn580       O591   2.051       .  S
Zn581       O586   2.031       .  S
Zn581       O589   1.949       .  S
Zn581       O592   1.945       .  S
Zn582       O590   2.108       .  S
Zn582       O593   2.055       .  S
Zn582       O594   2.099       .  S
Zn582       O583   1.962   1_565  S
O585        C597   1.286       .  A
O587        C596   1.287       .  A
O588        C598   1.270   1_565  A
O589        C597   1.263       .  A
O590        C599   1.288       .  A
O593        C600   1.275   1_565  A
O594        C601   1.285       .  A
O595        C601   1.265       .  A
C596        C639   1.438       .  S
C597        C625   1.446       .  S
C598        C648   1.440       .  S
C599        C638   1.444       .  S
C600        C669   1.456       .  S
C601        C627   1.445       .  S
Zn602       O607   2.113       .  S
Zn602       O611   2.112       .  S
Zn602       O618   2.041       .  S
Zn602       O606   1.950       .  S
Zn603       O608   2.015       .  S
Zn603       O610   1.945       .  S
Zn603       O614   1.949       .  S
Zn603       O606   1.911       .  S
Zn604       O609   1.957       .  S
Zn604       O612   1.993       .  S
Zn604       O615   1.957       .  S
Zn604       O606   1.927       .  S
Zn605       O613   2.103       .  S
Zn605       O616   2.107       .  S
Zn605       O617   2.024       .  S
Zn605       O606   1.957       .  S
O607        C619   1.288       .  A
O608        C620   1.271       .  A
O609        C621   1.265       .  A
O610        C619   1.264       .  A
O611        C621   1.287       .  A
O612        C620   1.268       .  A
O613        C622   1.281       .  A
O614        C623   1.264       .  A
O615        C622   1.262       .  A
O616        C623   1.286       .  A
O617        C624   1.272       .  A
O618        C624   1.274       .  A
C619        C636   1.444       .  S
C620        C642   1.428       .  S
C621        C630   1.446       .  S
C622        C634   1.453       .  S
C623        C632   1.446       .  S
C624        C666   1.444       .  S
C625        C626   1.215       .  T
C627        C628   1.214       .  T
C629        C630   1.214       .  T
C631        C632   1.215       .  T
C633        C634   1.218       .  T
C635        C636   1.215       .  T
C641        C642   1.202       .  T
C643        C644   1.208       .  T
C645        C646   1.209       .  T
C649        C650   1.213       .  T
C651        C652   1.215       .  T
C653        C654   1.209       .  T
C654       C1179   1.440       .  S
C655        C656   1.214       .  T
C657        C658   1.217   1_554  T
C659       C1356   1.218   1_455  T
C660       C1355   1.220       .  T
C661       C1358   1.217       .  T
C662       C1357   1.219       .  T
C663        C664   1.217       .  T
C664       C1247   1.453       .  S
C665        C666   1.211       .  T
C667        C668   1.214       .  T
C669        C670   1.218       .  T
C671        C672   1.217       .  T
C673        C674   1.217       .  T
C675        C676   1.205       .  T
C677        C678   1.213       .  T
C679        C680   1.220       .  T
C681        C682   1.217       .  T
C683       C1181   1.428       .  S
C683        C684   1.201       .  T
C685        C686   1.200       .  T
C687       C1384   1.216       .  T
C688       C1383   1.216       .  T
C689       C1386   1.214       .  T
C690       C1385   1.214       .  T
C695        C696   1.215       .  T
Zn697       O706   1.997       .  S
Zn697      O1061   1.969   1_545  S
Zn698       O703   2.130       .  S
Zn698       O705   2.120       .  S
Zn698       O709   2.051       .  S
Zn698       O701   1.955   1_545  S
Zn699       O704   1.989       .  S
Zn699      O1055   1.949       .  S
Zn699      O1049   1.933       .  S
Zn700       O708   2.110       .  S
Zn700       O711   2.045       .  S
Zn700       O712   2.119       .  S
O701      Zn1047   1.924       .  S
O702        C714   1.261       .  A
O703        C715   1.291   1_545  A
O704        C716   1.266       .  A
O705        C714   1.289       .  A
O707      Zn1047   1.939       .  S
O707        C715   1.262       .  A
O708        C717   1.284       .  A
O710        C717   1.265       .  A
O711       C1066   1.274       .  A
O712        C719   1.286       .  A
O713      Zn1045   1.969       .  S
O713        C719   1.267       .  A
C714       C1037   1.442       .  S
C715       C1041   1.446       .  S
C716       C1033   1.424       .  S
C717       C1035   1.455       .  S
C718       O1059   1.274       .  A
C718       C1044   1.453       .  S
C719       C1040   1.457       .  S
Zn720       O725   2.017       .  S
Zn720       O736   1.941       .  S
Zn721       O726   1.980       .  S
Zn721       O728   2.010       .  S
Zn721       O724   1.953   1_655  S
Zn722       O727   2.108       .  S
Zn722       O730   2.081       .  S
Zn722       O733   2.024       .  S
Zn722       O724   1.961   1_655  S
Zn723       O731   2.040       .  S
Zn723       O734   2.117       .  S
Zn723       O735   2.122       .  S
O726        C738   1.268       .  A
O727        C739   1.287       .  A
O728        C737   1.269   1_655  A
O729        C739   1.262   1_455  A
O730        C738   1.279       .  A
O732        C741   1.263       .  A
O733        C740   1.272   1_655  A
O734        C741   1.288       .  A
O735        C742   1.288       .  A
O736        C742   1.262       .  A
C737       C1032   1.433       .  S
C738       C1028   1.454       .  S
C739       C1038   1.443       .  S
C740       C1025   1.444       .  S
C741       C1036   1.449       .  S
C742       C1029   1.449       .  S
Zn743       O748   2.019       .  S
Zn743       O752   1.953       .  S
Zn743      O1107   1.967       .  S
Zn743      O1095   1.952       .  S
Zn744      O1097   1.928       .  S
Zn744       O751   2.005       .  S
Zn744       O755   1.934       .  S
Zn744       O747   1.921       .  S
Zn745       O750   2.125       .  S
Zn745       O753   2.137       .  S
Zn745       O756   2.058       .  S
Zn745      O1095   1.972       .  S
Zn746       O754   2.043       .  S
Zn746       O757   2.124       .  S
Zn746       O758   2.109       .  S
Zn746       O747   1.966       .  S
O747      Zn1091   1.948   1_545  S
O747      Zn1093   1.970   1_545  S
O748       C1108   1.270       .  A
O749      Zn1092   1.928       .  S
O749        C761   1.260       .  A
O750        C762   1.289       .  A
O751        C760   1.268   1_545  A
O752        C762   1.265       .  A
O753        C761   1.291       .  A
O754        C763   1.273   1_545  A
O755        C764   1.261       .  A
O756       C1111   1.275       .  A
O757        C764   1.288       .  A
O758        C765   1.283       .  A
O759      Zn1091   1.967   1_545  S
O759        C765   1.265       .  A
C760       O1096   1.270       .  A
C760       C1024   1.435       .  S
C761       C1042   1.449       .  S
C762       C1019   1.449       .  S
C763       O1104   1.275       .  A
C763       C1366   1.454       .  S
C764       C1021   1.447       .  S
C765       C1039   1.458       .  S
Zn766       O771   1.976       .  S
Zn766       O775   2.036       .  S
Zn766       O782   1.959       .  S
Zn766       O770   1.941       .  S
Zn767       O772   2.084       .  S
Zn767       O774   2.094       .  S
Zn767       O778   2.021       .  S
Zn767       O770   1.955       .  S
Zn768       O773   2.036       .  S
Zn768       O776   1.971       .  S
Zn768       O779   1.972       .  S
Zn768       O770   1.940       .  S
Zn769       O777   2.117       .  S
Zn769       O780   2.031       .  S
Zn769       O781   2.110       .  S
Zn769       O770   1.970       .  S
O771        C783   1.268       .  A
O772        C784   1.281       .  A
O773        C785   1.272       .  A
O774        C783   1.283       .  A
O775        C785   1.273       .  A
O776        C784   1.268       .  A
O777        C786   1.289       .  A
O778        C787   1.269       .  A
O779        C786   1.267       .  A
O780        C787   1.270       .  A
O781        C788   1.288       .  A
O782        C788   1.265       .  A
C783       C1027   1.453       .  S
C784       C1020   1.449       .  S
C785       C1015   1.448       .  S
C786       C1030   1.452       .  S
C787       C1013   1.444       .  S
C788       C1022   1.449       .  S
Zn789       O794   2.053       .  S
Zn789      O1146   2.106       .  S
Zn789       O805   2.104       .  S
Zn789      O1141   1.971   1_656  S
Zn790       O795   2.103       .  S
Zn790       O797   2.049       .  S
Zn790      O1149   2.115   1_545  S
Zn791       O796   1.984       .  S
Zn791       O799   1.964       .  S
Zn791       O802   2.039       .  S
Zn792       O800   2.036       .  S
Zn792       O803   1.967   1_655  S
Zn792       O804   1.949       .  S
Zn792      O1141   1.940   1_655  S
O793      Zn1137   1.968   1_454  S
O793      Zn1140   1.933   1_445  S
O794       C1154   1.273   1_655  A
O795        C807   1.283   1_556  A
O798      Zn1137   2.107       .  S
O798        C808   1.287   1_655  A
O799        C807   1.265       .  A
O800       C1157   1.272   1_655  A
O801      Zn1138   2.107       .  S
O801        C810   1.286       .  A
O804        C811   1.264       .  A
O805        C811   1.287   1_556  A
C806       O1142   1.273   1_455  A
C806       C1011   1.455       .  S
C807       C1005   1.454       .  S
C808       C1010   1.451       .  S
C809       O1148   1.272   1_455  A
C809       C1043   1.453   1_455  S
C810       C1007   1.452       .  S
C811       C1004   1.443       .  S
Zn812       O817   2.110       .  S
Zn812       O821   2.024       .  S
Zn812       O828   2.093       .  S
Zn813       O818   1.931   1_655  S
Zn813       O820   1.943       .  S
Zn813       O824   2.006       .  S
Zn814       O819   2.033       .  S
Zn814       O822   2.122       .  S
Zn814       O825   2.108       .  S
Zn814       O816   1.975       .  S
Zn815       O823   1.953       .  S
Zn815       O826   2.016       .  S
Zn815       O827   1.974       .  S
Zn815       O816   1.948   1_554  S
O817        C829   1.287       .  A
O819        C831   1.272       .  A
O820        C829   1.263   1_554  A
O822        C830   1.288       .  A
O823        C832   1.265   1_554  A
O825        C832   1.286       .  A
O826        C833   1.270       .  A
O828        C834   1.279       .  A
C829        C997   1.445       .  S
C830       C1009   1.446       .  S
C832       C1000   1.445       .  S
C834       C1008   1.455   1_655  S
Zn835      O1188   2.105       .  S
Zn835       O844   2.110   1_565  S
Zn835       O851   2.026       .  S
Zn835       O839   1.944   1_566  S
Zn836       O841   2.004       .  S
Zn836       O843   1.935       .  S
Zn836       O847   1.968       .  S
Zn836      O1187   1.925       .  S
Zn837       O842   1.950       .  S
Zn837       O845   2.015       .  S
Zn837       O848   1.959       .  S
Zn837       O839   1.913       .  S
Zn838      O1194   2.069       .  S
Zn838       O849   2.066       .  S
Zn838       O850   2.021       .  S
Zn838      O1187   1.932   1_556  S
O839      Zn1184   1.929   1_545  S
O839      Zn1186   1.935   1_554  S
O840      Zn1183   2.098   1_554  S
O840        C852   1.289       .  A
O841       C1201   1.268       .  A
O842        C854   1.263       .  A
O843        C852   1.263       .  A
O844        C854   1.287   1_556  A
O845        C853   1.271       .  A
O846      Zn1186   2.063       .  S
O846        C855   1.282   1_556  A
O847        C856   1.267   1_554  A
O848        C855   1.268       .  A
O849        C856   1.276       .  A
O850       C1205   1.271       .  A
O851        C857   1.271   1_565  A
C852        C991   1.434       .  S
C853       O1189   1.270   1_545  A
C853       C1023   1.435   1_545  S
C854        C998   1.447   1_554  S
C855        C993   1.434       .  S
C856        C999   1.447       .  S
C857       O1198   1.271       .  A
C857        C995   1.440       .  S
Zn858       O863   2.045       .  S
Zn858       O867   2.107       .  S
Zn858       O874   2.088       .  S
Zn858       O862   1.966   1_554  S
Zn859       O864   2.083       .  S
Zn859       O866   2.029       .  S
Zn859       O870   2.091       .  S
Zn859       O862   1.955   1_554  S
Zn860       O865   1.948       .  S
Zn860       O868   1.926       .  S
Zn860       O871   2.009       .  S
Zn860       O862   1.921       .  S
Zn861       O869   1.986       .  S
Zn861       O872   1.974       .  S
Zn861       O873   1.926       .  S
Zn861       O862   1.938       .  S
O863        C875   1.274       .  A
O864        C876   1.285       .  A
O865        C877   1.262       .  A
O866        C875   1.272       .  A
O867        C877   1.286   1_554  A
O868        C876   1.263   1_556  A
O869        C878   1.265       .  A
O870        C879   1.279       .  A
O871        C878   1.268       .  A
O872        C879   1.265   1_556  A
O873        C880   1.261       .  A
O874        C880   1.285   1_554  A
C875       C1016   1.448       .  S
C876        C992   1.430       .  S
C877       C1003   1.444   1_556  S
C878        C989   1.427       .  S
C879       C1006   1.454       .  S
C880        C994   1.431   1_556  S
Zn881       O886   1.926       .  S
Zn881       O890   1.957       .  S
Zn881       O897   1.975       .  S
Zn882       O887   2.061       .  S
Zn882       O893   2.116       .  S
Zn882       O885   1.967   1_545  S
Zn883       O888   2.100   1_455  S
Zn883       O891   2.034       .  S
Zn884       O892   1.927   1_545  S
Zn884       O895   1.944       .  S
Zn884       O896   2.003       .  S
Zn884       O885   1.931   1_545  S
O886       C1246   1.262       .  A
O887        C899   1.276   1_545  A
O888        C900   1.281       .  A
O889        C898   1.290   1_545  A
O890        C900   1.262       .  A
O892       C1249   1.262       .  A
O893        C902   1.287       .  A
O894        C901   1.283       .  A
O895        C902   1.262       .  A
O896        C903   1.266   1_545  A
C898       O1234   1.263       .  A
C898        C985   1.440       .  S
C900        C981   1.450       .  S
C901       O1240   1.265       .  A
C901        C988   1.436       .  S
C902        C983   1.446       .  S
C903       C1382   1.423       .  S
Zn904       O909   1.970       .  S
Zn904       O913   1.943       .  S
Zn904       O920   2.024       .  S
Zn905       O910   2.030       .  S
Zn905       O912   2.091       .  S
Zn906       O914   2.022       .  S
Zn906       O917   2.108       .  S
Zn906       O908   1.975   1_655  S
Zn907       O915   1.950       .  S
Zn907       O918   1.948       .  S
Zn907       O919   2.021       .  S
Zn907       O908   1.930   1_655  S
O909        C921   1.267       .  A
O911        C923   1.288       .  A
O912        C921   1.281       .  A
O913        C923   1.264       .  A
O914        C922   1.270   1_655  A
O915        C924   1.263       .  A
O916        C925   1.285       .  A
O917        C924   1.286       .  A
O918        C925   1.265       .  A
O919        C926   1.270       .  A
C921        C976   1.452       .  S
C922       C1026   1.444       .  S
C923        C979   1.441       .  S
C924        C974   1.446       .  S
C925        C977   1.442       .  S
C926       C1001   1.440       .  S
Zn927       O932   1.946       .  S
Zn927       O936   2.019       .  S
Zn927       O943   1.974       .  S
Zn927       O931   1.951       .  S
Zn928       O933   2.110       .  S
Zn928       O935   2.103       .  S
Zn928       O939   2.046       .  S
Zn928      O1279   1.960   1_545  S
Zn929       O934   2.028       .  S
Zn929       O937   1.938       .  S
Zn929       O940   1.955   1_545  S
Zn929      O1279   1.921   1_545  S
Zn930       O938   2.098       .  S
Zn930       O941   2.039       .  S
Zn930       O942   2.072       .  S
Zn930       O931   1.957       .  S
O931      Zn1276   1.964       .  S
O931      Zn1277   1.922       .  S
O932       C1292   1.263       .  A
O933        C945   1.286       .  A
O934       C1294   1.271   1_545  A
O935        C944   1.288   1_545  A
O936        C946   1.270       .  A
O937        C945   1.262       .  A
O938        C947   1.287       .  A
O939       C1296   1.273   1_545  A
O940       C1295   1.266       .  A
O941        C948   1.273       .  A
O942        C949   1.276       .  A
O943        C949   1.267       .  A
C944       O1280   1.263       .  A
C944        C987   1.440       .  S
C945        C973   1.444       .  S
C946       O1282   1.271       .  A
C946        C996   1.441       .  S
C947       O1288   1.265       .  A
C947        C986   1.439       .  S
C948       O1287   1.275       .  A
C948       C1017   1.455       .  S
C949        C975   1.453       .  S
Zn950       O955   2.112       .  S
Zn950       O959   2.108       .  S
Zn950       O966   2.042       .  S
Zn950       O954   1.951       .  S
Zn951       O956   2.012       .  S
Zn951       O958   1.947       .  S
Zn951       O962   1.941       .  S
Zn951       O954   1.910       .  S
Zn952       O957   1.958       .  S
Zn952       O960   1.994       .  S
Zn952       O963   1.959       .  S
Zn952       O954   1.926       .  S
Zn953       O961   2.095       .  S
Zn953       O964   2.095       .  S
Zn953       O965   2.019       .  S
Zn953       O954   1.958       .  S
O955        C967   1.288       .  A
O956        C968   1.270       .  A
O957        C969   1.265       .  A
O958        C967   1.264       .  A
O959        C969   1.287       .  A
O960        C968   1.268       .  A
O961        C970   1.280       .  A
O962        C971   1.263       .  A
O963        C970   1.262       .  A
O964        C971   1.285       .  A
O965        C972   1.271       .  A
O966        C972   1.274       .  A
C967        C984   1.444       .  S
C968        C990   1.427       .  S
C969        C978   1.445       .  S
C970        C982   1.451       .  S
C971        C980   1.441       .  S
C972       C1014   1.444       .  S
C973        C974   1.215       .  T
C975        C976   1.218       .  T
C977        C978   1.214       .  T
C979        C980   1.212       .  T
C981        C982   1.217       .  T
C983        C984   1.214       .  T
C985       C1334   1.212       .  T
C986       C1333   1.211       .  T
C987       C1336   1.210       .  T
C988       C1335   1.210       .  T
C989        C990   1.202       .  T
C991        C992   1.207       .  T
C993        C994   1.207       .  T
C995       C1344   1.209       .  T
C996       C1343   1.210       .  T
C997        C998   1.215       .  T
C999       C1000   1.214       .  T
C1001      C1002   1.209       .  T
C1003      C1004   1.214       .  T
C1005      C1006   1.218       .  T
C1011      C1012   1.217       .  T
C1013      C1014   1.211       .  T
C1015      C1016   1.214       .  T
C1017      C1018   1.217       .  T
C1018      C1111   1.455       .  S
C1019      C1020   1.217       .  T
C1021      C1022   1.217       .  T
C1023      C1024   1.207       .  T
C1025      C1026   1.212       .  T
C1027      C1028   1.219       .  T
C1029      C1030   1.217       .  T
C1031      C1032   1.204       .  T
C1033      C1034   1.199       .  T
C1034      C1251   1.424       .  S
C1039      C1388   1.221   1_545  T
C1040      C1387   1.221       .  T
C1041      C1390   1.215       .  T
C1042      C1389   1.218       .  T
C1043      C1044   1.215       .  T
Zn1045     O1054   2.000       .  S
Zn1046     O1051   2.143       .  S
Zn1046     O1053   2.126       .  S
Zn1046     O1057   2.054       .  S
Zn1046     O1049   1.960       .  S
Zn1047     O1052   1.984       .  S
Zn1048     O1056   2.099       .  S
Zn1048     O1059   2.041       .  S
Zn1048     O1060   2.117       .  S
O1050      C1062   1.261       .  A
O1051      C1063   1.292       .  A
O1052      C1064   1.265       .  A
O1053      C1062   1.290       .  A
O1055      C1063   1.263       .  A
O1056      C1065   1.282       .  A
O1058      C1065   1.264       .  A
O1060      C1067   1.285       .  A
O1061      C1067   1.266       .  A
C1062      C1385   1.444       .  S
C1063      C1389   1.452       .  S
C1064      C1381   1.423       .  S
C1065      C1383   1.450       .  S
C1066      C1392   1.454   1_655  S
C1067      C1388   1.456       .  S
Zn1068     O1073   1.997       .  S
Zn1068     O1084   1.928       .  S
Zn1069     O1074   1.977       .  S
Zn1069     O1076   2.007       .  S
Zn1069     O1072   1.951   1_655  S
Zn1070     O1075   2.106       .  S
Zn1070     O1078   2.092       .  S
Zn1070     O1081   2.019       .  S
Zn1070     O1072   1.958   1_655  S
Zn1071     O1079   2.039       .  S
Zn1071     O1082   2.113       .  S
Zn1071     O1083   2.114       .  S
O1074      C1086   1.267       .  A
O1075      C1087   1.287       .  A
O1076      C1085   1.268   1_655  A
O1077      C1087   1.263   1_455  A
O1078      C1086   1.280       .  A
O1080      C1089   1.263       .  A
O1081      C1088   1.270   1_655  A
O1082      C1089   1.288       .  A
O1083      C1090   1.286       .  A
O1084      C1090   1.260       .  A
C1085      C1380   1.433       .  S
C1086      C1376   1.455       .  S
C1087      C1386   1.445       .  S
C1088      C1373   1.443       .  S
C1089      C1384   1.446       .  S
C1090      C1377   1.443       .  S
Zn1091     O1096   2.021       .  S
Zn1091     O1100   1.953       .  S
Zn1092     O1099   1.996       .  S
Zn1092     O1103   1.929       .  S
Zn1092     O1095   1.920       .  S
Zn1093     O1098   2.120       .  S
Zn1093     O1101   2.122       .  S
Zn1093     O1104   2.053       .  S
Zn1094     O1102   2.041       .  S
Zn1094     O1105   2.118       .  S
Zn1094     O1106   2.107       .  S
Zn1094     O1095   1.969       .  S
O1097      C1109   1.261   1_545  A
O1098      C1110   1.288       .  A
O1099      C1108   1.266       .  A
O1100      C1110   1.264       .  A
O1101      C1109   1.289       .  A
O1102      C1111   1.273       .  A
O1103      C1112   1.261       .  A
O1105      C1112   1.288       .  A
O1106      C1113   1.282       .  A
O1107      C1113   1.264       .  A
C1108      C1372   1.432       .  S
C1109      C1390   1.443       .  S
C1110      C1367   1.449       .  S
C1112      C1369   1.444       .  S
C1113      C1387   1.458       .  S
Zn1114     O1119   1.982       .  S
Zn1114     O1123   2.045       .  S
Zn1114     O1130   1.957       .  S
Zn1114     O1118   1.945       .  S
Zn1115     O1120   2.088       .  S
Zn1115     O1122   2.094       .  S
Zn1115     O1126   2.019       .  S
Zn1115     O1118   1.954       .  S
Zn1116     O1121   2.042       .  S
Zn1116     O1124   1.973       .  S
Zn1116     O1127   1.957       .  S
Zn1116     O1118   1.944       .  S
Zn1117     O1125   2.106       .  S
Zn1117     O1128   2.034       .  S
Zn1117     O1129   2.097       .  S
Zn1117     O1118   1.977       .  S
O1119      C1131   1.270       .  A
O1120      C1132   1.282       .  A
O1121      C1133   1.273       .  A
O1122      C1131   1.283       .  A
O1123      C1133   1.273       .  A
O1124      C1132   1.269       .  A
O1125      C1134   1.287       .  A
O1126      C1135   1.269       .  A
O1127      C1134   1.264       .  A
O1128      C1135   1.270       .  A
O1129      C1136   1.286       .  A
O1130      C1136   1.265       .  A
C1131      C1375   1.454       .  S
C1132      C1368   1.450       .  S
C1133      C1363   1.451       .  S
C1134      C1378   1.446       .  S
C1135      C1361   1.444       .  S
C1136      C1370   1.446       .  S
Zn1137     O1142   2.052   1_545  S
Zn1137     O1153   2.106   1_545  S
Zn1138     O1143   2.094       .  S
Zn1138     O1145   2.040       .  S
Zn1139     O1144   1.990       .  S
Zn1139     O1147   1.967       .  S
Zn1139     O1150   2.046       .  S
Zn1140     O1148   2.038       .  S
Zn1140     O1151   1.964   1_655  S
Zn1140     O1152   1.945       .  S
O1143      C1155   1.282   1_556  A
O1146      C1156   1.287   1_655  A
O1147      C1155   1.265       .  A
O1149      C1158   1.287       .  A
O1152      C1159   1.263       .  A
O1153      C1159   1.287   1_556  A
C1154      C1359   1.456       .  S
C1155      C1353   1.451       .  S
C1156      C1358   1.452       .  S
C1157      C1391   1.454       .  S
C1158      C1355   1.454       .  S
C1159      C1352   1.443       .  S
Zn1160     O1165   2.108       .  S
Zn1160     O1169   2.019       .  S
Zn1160     O1176   2.095       .  S
Zn1161     O1166   1.937   1_655  S
Zn1161     O1168   1.941       .  S
Zn1161     O1172   2.009       .  S
Zn1162     O1167   2.025       .  S
Zn1162     O1170   2.132       .  S
Zn1162     O1173   2.122       .  S
Zn1162     O1164   1.970       .  S
Zn1163     O1171   1.950       .  S
Zn1163     O1174   1.997       .  S
Zn1163     O1175   1.968       .  S
Zn1163     O1164   1.944   1_554  S
O1165      C1177   1.287       .  A
O1167      C1179   1.272       .  A
O1168      C1177   1.263   1_554  A
O1170      C1178   1.289       .  A
O1171      C1180   1.264   1_554  A
O1173      C1180   1.288       .  A
O1174      C1181   1.267       .  A
O1176      C1182   1.279       .  A
C1177      C1345   1.443       .  S
C1178      C1357   1.450       .  S
C1180      C1348   1.448       .  S
C1182      C1356   1.455       .  S
Zn1183     O1192   2.106       .  S
Zn1183     O1199   2.032       .  S
Zn1183     O1187   1.943   1_556  S
Zn1184     O1189   2.017       .  S
Zn1184     O1191   1.943       .  S
Zn1184     O1195   1.974       .  S
Zn1185     O1190   1.946       .  S
Zn1185     O1193   2.018       .  S
Zn1185     O1196   1.962       .  S
Zn1185     O1187   1.909       .  S
Zn1186     O1197   2.069   1_545  S
Zn1186     O1198   2.022       .  S
O1188      C1200   1.289   1_556  A
O1190      C1202   1.263       .  A
O1191      C1200   1.263       .  A
O1192      C1202   1.286   1_556  A
O1193      C1201   1.271       .  A
O1194      C1203   1.283   1_556  A
O1195      C1204   1.268   1_554  A
O1196      C1203   1.269       .  A
O1197      C1204   1.277       .  A
O1199      C1205   1.272       .  A
C1200      C1339   1.440       .  S
C1201      C1371   1.433       .  S
C1202      C1346   1.445   1_554  S
C1203      C1341   1.436   1_554  S
C1204      C1347   1.449       .  S
C1205      C1343   1.441       .  S
Zn1206     O1211   2.047       .  S
Zn1206     O1215   2.107       .  S
Zn1206     O1222   2.098       .  S
Zn1206     O1210   1.967   1_554  S
Zn1207     O1212   2.091       .  S
Zn1207     O1214   2.036       .  S
Zn1207     O1218   2.095       .  S
Zn1207     O1210   1.955   1_554  S
Zn1208     O1213   1.947       .  S
Zn1208     O1216   1.937       .  S
Zn1208     O1219   2.008       .  S
Zn1208     O1210   1.927       .  S
Zn1209     O1217   1.977       .  S
Zn1209     O1220   1.966       .  S
Zn1209     O1221   1.930       .  S
Zn1209     O1210   1.937       .  S
O1211      C1223   1.274       .  A
O1212      C1224   1.285       .  A
O1213      C1225   1.262       .  A
O1214      C1223   1.273       .  A
O1215      C1225   1.286   1_554  A
O1216      C1224   1.264   1_556  A
O1217      C1226   1.264       .  A
O1218      C1227   1.280   1_554  A
O1219      C1226   1.268       .  A
O1220      C1227   1.264       .  A
O1221      C1228   1.261       .  A
O1222      C1228   1.286   1_554  A
C1223      C1364   1.451       .  S
C1224      C1340   1.437       .  S
C1225      C1351   1.444       .  S
C1226      C1337   1.424       .  S
C1227      C1354   1.451   1_556  S
C1228      C1342   1.434       .  S
Zn1229     O1234   1.932       .  S
Zn1229     O1238   1.957       .  S
Zn1229     O1245   1.981       .  S
Zn1230     O1235   2.059       .  S
Zn1230     O1241   2.121       .  S
Zn1230     O1233   1.953       .  S
Zn1231     O1236   2.105   1_455  S
Zn1231     O1239   2.039       .  S
Zn1232     O1240   1.948       .  S
Zn1232     O1243   1.950       .  S
Zn1232     O1244   2.004       .  S
Zn1232     O1233   1.924       .  S
O1235      C1247   1.276       .  A
O1236      C1248   1.283       .  A
O1237      C1246   1.291       .  A
O1238      C1248   1.263       .  A
O1241      C1250   1.289       .  A
O1242      C1249   1.285       .  A
O1243      C1250   1.264       .  A
O1244      C1251   1.266       .  A
C1246      C1333   1.439       .  S
C1248      C1329   1.450       .  S
C1249      C1336   1.435       .  S
C1250      C1331   1.447       .  S
Zn1252     O1257   1.973       .  S
Zn1252     O1261   1.953       .  S
Zn1252     O1268   2.024       .  S
Zn1253     O1258   2.040       .  S
Zn1253     O1260   2.093       .  S
Zn1254     O1262   2.030       .  S
Zn1254     O1265   2.111       .  S
Zn1254     O1256   1.969   1_655  S
Zn1255     O1263   1.962       .  S
Zn1255     O1266   1.969       .  S
Zn1255     O1267   2.023       .  S
Zn1255     O1256   1.937   1_655  S
O1257      C1269   1.267       .  A
O1259      C1271   1.286       .  A
O1260      C1269   1.281       .  A
O1261      C1271   1.265       .  A
O1262      C1270   1.271   1_655  A
O1263      C1272   1.266       .  A
O1264      C1273   1.281       .  A
O1265      C1272   1.288       .  A
O1266      C1273   1.267       .  A
O1267      C1274   1.270   1_655  A
C1269      C1324   1.452       .  S
C1270      C1374   1.443       .  S
C1271      C1327   1.443       .  S
C1272      C1322   1.447       .  S
C1273      C1325   1.448       .  S
C1274      C1349   1.440       .  S
Zn1275     O1280   1.944       .  S
Zn1275     O1284   2.016       .  S
Zn1275     O1291   1.976       .  S
Zn1275     O1279   1.945       .  S
Zn1276     O1281   2.104       .  S
Zn1276     O1283   2.099       .  S
Zn1276     O1287   2.055       .  S
Zn1277     O1282   2.027       .  S
Zn1277     O1285   1.943       .  S
Zn1277     O1288   1.948       .  S
Zn1278     O1286   2.096       .  S
Zn1278     O1289   2.045       .  S
Zn1278     O1290   2.074       .  S
Zn1278     O1279   1.948       .  S
O1281      C1293   1.286       .  A
O1283      C1292   1.287       .  A
O1284      C1294   1.270       .  A
O1285      C1293   1.263       .  A
O1286      C1295   1.287       .  A
O1289      C1296   1.274       .  A
O1290      C1297   1.277       .  A
O1291      C1297   1.268       .  A
C1292      C1335   1.438       .  S
C1293      C1321   1.443       .  S
C1294      C1344   1.440   1_565  S
C1295      C1334   1.441       .  S
C1296      C1365   1.454       .  S
C1297      C1323   1.453       .  S
Zn1298     O1303   2.114       .  S
Zn1298     O1307   2.110       .  S
Zn1298     O1314   2.043       .  S
Zn1298     O1302   1.954       .  S
Zn1299     O1304   2.004       .  S
Zn1299     O1306   1.949       .  S
Zn1299     O1310   1.931       .  S
Zn1299     O1302   1.908       .  S
Zn1300     O1305   1.956       .  S
Zn1300     O1308   1.991       .  S
Zn1300     O1311   1.963       .  S
Zn1300     O1302   1.931       .  S
Zn1301     O1309   2.097       .  S
Zn1301     O1312   2.103       .  S
Zn1301     O1313   2.023       .  S
Zn1301     O1302   1.958       .  S
O1303      C1315   1.288       .  A
O1304      C1316   1.269       .  A
O1305      C1317   1.265       .  A
O1306      C1315   1.264       .  A
O1307      C1317   1.286       .  A
O1308      C1316   1.268       .  A
O1309      C1318   1.281       .  A
O1310      C1319   1.261       .  A
O1311      C1318   1.263       .  A
O1312      C1319   1.285       .  A
O1313      C1320   1.272       .  A
O1314      C1320   1.274       .  A
C1315      C1332   1.446       .  S
C1316      C1338   1.424       .  S
C1317      C1326   1.447       .  S
C1318      C1330   1.451       .  S
C1319      C1328   1.440       .  S
C1320      C1362   1.444       .  S
C1321      C1322   1.214       .  T
C1323      C1324   1.218       .  T
C1325      C1326   1.215       .  T
C1327      C1328   1.213       .  T
C1329      C1330   1.217       .  T
C1331      C1332   1.215       .  T
C1337      C1338   1.200       .  T
C1339      C1340   1.210       .  T
C1341      C1342   1.209       .  T
C1345      C1346   1.214       .  T
C1347      C1348   1.216       .  T
C1349      C1350   1.209       .  T
C1351      C1352   1.214   1_556  T
C1353      C1354   1.217       .  T
C1359      C1360   1.218       .  T
C1361      C1362   1.212       .  T
C1363      C1364   1.216       .  T
C1365      C1366   1.216       .  T
C1367      C1368   1.217       .  T
C1369      C1370   1.215       .  T
C1371      C1372   1.206       .  T
C1373      C1374   1.211       .  T
C1375      C1376   1.220       .  T
C1377      C1378   1.214       .  T
C1379      C1380   1.204       .  T
C1381      C1382   1.199       .  T
C1391      C1392   1.216       .  T
