geometry optimzed in LAMMPS
_audit_creation_date              2020-11-30 
_audit_creation_method            'lammps2cif' 
_symmetry_space_group_name_H-M    'P1' 
_symmetry_Int_Tables_number       1 
_symmetry_cell_setting            triclinic 
loop_ 
_symmetry_equiv_pos_as_xyz 
  x,y,z 
_cell_length_a                    51.13480809 
_cell_length_b                    26.86088899470666 
_cell_length_c                    44.83503039491188 
_cell_angle_alpha                 90.19076725733552 
_cell_angle_beta                  89.97897490992723 
_cell_angle_gamma                 121.83402545591757 
loop_ 
_atom_site_label 
_atom_site_type_symbol 
_atom_site_fract_x 
_atom_site_fract_y 
_atom_site_fract_z 
_atom_site_charge 
O1          O  0.09479068  0.65293313  0.10091116    -0.79800
O2          O  0.12958450  0.91664459  0.11401857    -0.64400
O3          O  0.08966705  0.75209959  0.10167388    -1.11000
C4          C  0.11266836  0.79761920  0.00225072     1.07100
O5          O  0.11539303  0.94016985  0.07233239    -0.77700
O6          O  0.06769424  0.83280242  0.05281664    -0.65200
Ni7        Ni  0.10163627  0.71286127  0.12896160     1.34900
C8          C  0.05222969  0.77760691  0.04900099     0.85900
O9          O  0.09389584  0.82543475  0.14705723    -0.78200
O10         O  0.10855621  0.76515871  0.16196459    -0.88500
C11         C  0.12790532  0.95331687  0.09796267     0.85400
O12         O  0.14345324  0.75927850  0.11661767    -0.66700
O13         O  0.10524957  0.83473923  0.00877807    -0.86000
C14         C  0.15982574  0.81410223  0.12112174     0.86300
C15         C  0.10069340  0.80208055  0.16737235     1.07800
H16         H  0.14505566  0.86112231  0.06716596     0.39600
O17         O  0.12293712  0.84224563  0.06815042    -1.08600
O18         O  0.06473323  0.74705357  0.04801948    -0.65300
Ni19       Ni  0.10389185  0.75961519  0.06151286     1.26300
O20         O  0.14827922  0.84609937  0.12217369    -0.65500
O21         O  0.11843042  0.77061974  0.02172703    -0.77800
C22         C  0.08742341  0.64080896  0.07365428     0.85700
O23         O  0.08619859  0.67647766  0.05585978    -0.65000
Ni24       Ni  0.11009785  0.88289210  0.04263929     1.27400
Ni25       Ni  0.10935451  0.83474271  0.10808396     1.26100
H26         H  0.06758336  0.73395948  0.10245704     0.40200
O27         O  0.09434370  0.65460793  0.33376866    -0.79800
O28         O  0.11747639  0.90535913  0.37004974    -0.64400
O29         O  0.08372683  0.74647012  0.34558152    -1.11000
C30         C  0.11323753  0.82124372  0.25063686     1.07100
O31         O  0.10464114  0.93648245  0.32969901    -0.77700
O32         O  0.06137493  0.83698691  0.30189767    -0.65200
Ni33       Ni  0.09661093  0.70165198  0.36763143     1.34900
C34         C  0.04747817  0.78314256  0.29510180     0.85900
O35         O  0.08457965  0.80297959  0.39780598    -0.78200
O36         O  0.09969583  0.73995484  0.40543328    -0.88500
C37         C  0.11536533  0.94404076  0.35599957     0.85400
O38         O  0.13883210  0.75661803  0.35902948    -0.66700
O39         O  0.10329798  0.85393568  0.25855561    -0.86000
C40         C  0.15311130  0.80943022  0.36801238     0.86300
C41         C  0.09180571  0.77484777  0.41507874     1.07800
H42         H  0.13862328  0.86778811  0.31943923     0.39600
O43         O  0.11637416  0.84682722  0.31926979    -1.08600
O44         O  0.06149243  0.75558363  0.29218783    -0.65300
Ni45       Ni  0.10070610  0.76874366  0.30642771     1.26300
O46         O  0.13984043  0.83797111  0.37174395    -0.65500
O47         O  0.11932472  0.79341706  0.26894088    -0.77800
C48         C  0.08871585  0.65252304  0.30599140     0.85700
O49         O  0.08573005  0.69099690  0.29319281    -0.65000
Ni50       Ni  0.10404065  0.89117970  0.29598152     1.27400
Ni51       Ni  0.10061156  0.82580044  0.35865606     1.26100
H52         H  0.06153212  0.72589492  0.34523047     0.40200
O53         O  0.22474783  0.80500718  0.16592577    -0.79800
O54         O  0.31536129  0.72247826  0.20970419    -0.64400
O55         O  0.27655135  0.80198764  0.18185725    -1.11000
C56         C  0.29832752  0.75869644  0.08640036     1.07100
O57         O  0.35407312  0.76577726  0.17720923    -0.77700
O58         O  0.35234625  0.85089060  0.14369696    -0.65200
Ni59       Ni  0.23898001  0.78468251  0.20058156     1.34900
C60         C  0.33906739  0.87811740  0.13652276     0.85900
O61         O  0.29488781  0.78215146  0.23758544    -0.78200
O62         O  0.24738926  0.76429670  0.23911345    -0.88500
C63         C  0.34171857  0.73536307  0.20065938     0.85400
O64         O  0.22009354  0.70612308  0.18730048    -0.66700
O65         O  0.32320765  0.76965917  0.09891736    -0.86000
C66         C  0.22830791  0.67025684  0.19372663     0.86300
C67         C  0.27142738  0.77273747  0.25205031     1.07800
H68         H  0.28412849  0.70070618  0.15326385     0.39600
O69         O  0.29669489  0.74266505  0.15605211    -1.08600
O70         O  0.31017726  0.85252825  0.13243514    -0.65300
Ni71       Ni  0.27481900  0.77626778  0.14091650     1.26300
O72         O  0.25589206  0.68644736  0.20143868    -0.65500
O73         O  0.27516502  0.75140601  0.10098979    -0.77800
C74         C  0.23008437  0.81113058  0.13811723     0.85700
O75         O  0.25069870  0.80567054  0.12578328    -0.65000
Ni76       Ni  0.33643256  0.76843724  0.13927827     1.27400
Ni77       Ni  0.29530857  0.76137116  0.19683608     1.26100
H78         H  0.29110021  0.84362593  0.18374821     0.40200
O79         O  0.21930415  0.80463806  0.41501721    -0.79800
O80         O  0.30655576  0.71707239  0.45538248    -0.64400
O81         O  0.27417057  0.80994350  0.43094210    -1.11000
C82         C  0.29440520  0.77309439  0.33410157     1.07100
O83         O  0.34568654  0.75757299  0.42319597    -0.77700
O84         O  0.34848388  0.85245413  0.39498184    -0.65200
Ni85       Ni  0.23989082  0.80563775  0.45102913     1.34900
C86         C  0.33722006  0.88351753  0.38842213     0.85900
O87         O  0.28906441  0.77813251  0.48573464    -0.78200
O88         O  0.25562426  0.80721716  0.49022586    -0.88500
C89         C  0.33238226  0.72698334  0.44636823     0.85400
O90         O  0.21610022  0.72271870  0.45106711    -0.66700
O91         O  0.31875720  0.78137736  0.34669625    -0.86000
C92         C  0.22194236  0.68228819  0.45006597     0.86300
C93         C  0.27398909  0.79400405  0.50136686     1.07800
H94         H  0.27688324  0.70588100  0.39885906     0.39600
O95         O  0.29063011  0.74719624  0.40286226    -1.08600
O96         O  0.30892134  0.86179828  0.38259104    -0.65300
Ni97       Ni  0.27168027  0.78777837  0.38945242     1.26300
O98         O  0.24903187  0.69132883  0.44765311    -0.65500
O99         O  0.27124972  0.76578126  0.34871406    -0.77800
C100        C  0.22637071  0.81778776  0.38780117     0.85700
O101        O  0.25079992  0.82516261  0.37647946    -0.65000
Ni102      Ni  0.33010278  0.77045848  0.38628471     1.27400
Ni103      Ni  0.28956512  0.76239406  0.44429750     1.26100
H104        H  0.29081531  0.85015657  0.43338914     0.40200
O105        O  0.08607850  0.51670922  0.49059950    -0.79800
O106        O  0.14793070  0.36345302  0.47646327    -0.64400
O107        O  0.09675000  0.42482102  0.49045589    -1.11000
C108        C  0.11534003  0.42257304  0.08997631     1.07100
O109        O  0.12729579  0.30124444  0.01596472    -0.77700
O110        O  0.07488323  0.29826658  0.03716217    -0.65200
Ni111      Ni  0.09864544  0.47986873  0.46216031     1.34900
C112        C  0.05744451  0.31835664  0.04120873     0.85900
O113        O  0.10764511  0.36991880  0.44349383    -0.78200
O114        O  0.11080442  0.45135164  0.42879724    -0.88500
C115        C  0.14635027  0.32237114  0.49174493     0.85400
O116        O  0.14026928  0.53191234  0.47215159    -0.66700
O117        O  0.10989438  0.37203277  0.08254927    -0.86000
C118        C  0.16199809  0.52247682  0.46875099     0.86300
C119        C  0.11022095  0.40445536  0.42329547     1.07800
H120        H  0.14874013  0.43386486  0.02413040     0.39600
O121        O  0.12688851  0.40559863  0.02277582    -1.08600
O122        O  0.06767294  0.37310468  0.04380563    -0.65300
Ni123      Ni  0.10509829  0.44382529  0.03117908     1.26300
O124        O  0.15761473  0.47074965  0.46940912    -0.65500
O125        O  0.11998231  0.46121910  0.07098050    -0.77800
C126        C  0.08159489  0.52061553  0.02209149     0.85700
O127        O  0.08516646  0.48672059  0.03914291    -0.65000
Ni128      Ni  0.11776058  0.33990952  0.04727648     1.27400
Ni129      Ni  0.12253017  0.39439516  0.48263473     1.26100
H130        H  0.07562405  0.39257915  0.49152422     0.40200
O131        O  0.10127826  0.53169343  0.25259257    -0.79800
O132        O  0.14716299  0.35530167  0.22369936    -0.64400
O133        O  0.10183602  0.42688083  0.24401052    -1.11000
C134        C  0.12907888  0.42087751  0.34088768     1.07100
O135        O  0.13398416  0.29752284  0.26369647    -0.77700
O136        O  0.08398030  0.29880358  0.28769493    -0.65200
Ni137      Ni  0.10555369  0.48923406  0.21969503     1.34900
C138        C  0.06810098  0.32153316  0.29361959     0.85900
O139        O  0.11020084  0.37592351  0.19323951    -0.78200
O140        O  0.10927400  0.45601929  0.18283900    -0.88500
C141        C  0.14579008  0.31306350  0.23776318     0.85400
O142        O  0.14886174  0.53429803  0.22358283    -0.66700
O143        O  0.12183316  0.36949365  0.33290603    -0.86000
C144        C  0.16849778  0.51935991  0.22007862     0.86300
C145        C  0.10892610  0.41015079  0.17493603     1.07800
H146        H  0.16048379  0.43212784  0.27425979     0.39600
O147        O  0.13843237  0.40531928  0.27316469    -1.08600
O148        O  0.08042313  0.37648926  0.29736396    -0.65300
Ni149      Ni  0.11827679  0.44498253  0.28373997     1.26300
O150        O  0.16178656  0.46620486  0.22151733    -0.65500
O151        O  0.13534168  0.46102776  0.32241672    -0.77800
C152        C  0.09712400  0.52463005  0.28064301     0.85700
O153        O  0.09904094  0.48613159  0.29470780    -0.65000
Ni154      Ni  0.12728347  0.33687569  0.29646945     1.27400
Ni155      Ni  0.12483608  0.39177125  0.23296618     1.26100
H156        H  0.08027691  0.39648752  0.24429562     0.40200
O157        O  0.30822358  0.22698340  0.16731231    -0.79800
O158        O  0.20136266  0.25831136  0.19621424    -0.64400
O159        O  0.24653970  0.18582591  0.18100658    -1.11000
C160        C  0.23309789  0.20399462  0.07963866     1.07100
O161        O  0.17093387  0.22758399  0.15581415    -0.77700
O162        O  0.17269884  0.13123747  0.13508497    -0.65200
Ni163      Ni  0.28322305  0.20816835  0.20252622     1.34900
C164        C  0.18500792  0.10066657  0.13296907     0.85900
O165        O  0.22405639  0.21092956  0.23212238    -0.78200
O166        O  0.26144310  0.19140551  0.23929929    -0.88500
C167        C  0.17855460  0.25179999  0.18154485     0.85400
O168        O  0.29836281  0.28951576  0.20757475    -0.66700
O169        O  0.20723162  0.19604055  0.08778883    -0.86000
C170        C  0.28748226  0.32152382  0.20229879     0.86300
C171        C  0.24006224  0.19817034  0.24885544     1.07800
H172        H  0.24114188  0.27792301  0.14281361     0.39600
O173        O  0.22763564  0.23661361  0.14682501    -1.08600
O174        O  0.21410196  0.12262483  0.13256579    -0.65300
Ni175      Ni  0.25032289  0.19980986  0.13935382     1.26300
O176        O  0.26012913  0.30144794  0.19361896    -0.65500
O177        O  0.25444849  0.21571276  0.09789490    -0.77800
C178        C  0.30228436  0.19691066  0.14358915     0.85700
O179        O  0.27503137  0.16640165  0.13377167    -0.65000
Ni180      Ni  0.19114796  0.21126690  0.12377962     1.27400
Ni181      Ni  0.22475807  0.22344046  0.18939696     1.26100
H182        H  0.23265901  0.14441847  0.18449349     0.40200
O183        O  0.29824946  0.20725052  0.41096582    -0.79800
O184        O  0.20063320  0.26357005  0.44863725    -0.64400
O185        O  0.23878196  0.17923311  0.42774395    -1.11000
C186        C  0.21511487  0.20352464  0.32915926     1.07100
O187        O  0.16123430  0.21131712  0.41783226    -0.77700
O188        O  0.16176687  0.12309282  0.38773465    -0.65200
Ni189      Ni  0.27505028  0.19314896  0.44734409     1.34900
C190        C  0.17441823  0.09339835  0.38456133     0.85900
O191        O  0.22327711  0.21255311  0.48174495    -0.78200
O192        O  0.25557294  0.17995405  0.48564141    -0.88500
C193        C  0.17427012  0.24880495  0.43869812     0.85400
O194        O  0.29385051  0.27556583  0.45243415    -0.66700
O195        O  0.19127940  0.19878632  0.34106280    -0.86000
C196        C  0.28571148  0.31231003  0.44812307     0.86300
C197        C  0.23755561  0.19414878  0.49705275     1.07800
H198        H  0.23087466  0.27225079  0.39231586     0.39600
O199        O  0.21796695  0.23129187  0.39740656    -1.08600
O200        O  0.20325056  0.11624007  0.38154946    -0.65300
Ni201      Ni  0.23911716  0.19346693  0.38578677     1.26300
O202        O  0.25856737  0.29741365  0.44056607    -0.65500
O203        O  0.23736305  0.20744013  0.34417500    -0.77800
C204        C  0.29039277  0.18272022  0.38545130     0.85700
O205        O  0.26313482  0.16002352  0.37562262    -0.65000
Ni206      Ni  0.17827828  0.20462020  0.38064727     1.27400
Ni207      Ni  0.22042700  0.22228116  0.43946330     1.26100
H208        H  0.22362924  0.13851868  0.43157137     0.40200
O209        O  0.43077565  0.32319279  0.08282851    -0.79800
O210        O  0.39015582  0.06381150  0.11690722    -0.64400
O211        O  0.43707713  0.22695218  0.09751486    -1.11000
C212        C  0.41930179  0.15576537  0.99840595     1.07100
O213        O  0.41980713  0.04802964  0.08719980    -0.77700
O214        O  0.46519990  0.14017667  0.05492129    -0.65200
Ni215      Ni  0.43154277  0.28334376  0.11814115     1.34900
C216        C  0.47992714  0.19486650  0.04980721     0.85900
O217        O  0.41881199  0.15935033  0.15151788    -0.78200
O218        O  0.43218741  0.25280490  0.15662925    -0.88500
C219        C  0.39894337  0.03047994  0.10712420     0.85400
O220        O  0.38796156  0.23737719  0.11734379    -0.66700
O221        O  0.42292654  0.11610034  0.00978763    -0.86000
C222        C  0.36785366  0.18288079  0.11571747     0.86300
C223        C  0.42572413  0.20399255  0.16754150     1.07800
H224        H  0.38569119  0.11367266  0.06224391     0.39600
O225        O  0.40732095  0.13235723  0.06696480    -1.08600
O226        O  0.46673590  0.22355569  0.04802805    -0.65300
Ni227      Ni  0.42723110  0.21199955  0.05550763     1.26300
O228        O  0.37448732  0.14364408  0.11180421    -0.65500
O229        O  0.41718473  0.19322932  0.01413059    -0.77800
C230        C  0.44072037  0.32841255  0.05635522     0.85700
O231        O  0.44637109  0.29216496  0.04483030    -0.65000
Ni232      Ni  0.42165326  0.08570280  0.04955665     1.27400
Ni233      Ni  0.41300478  0.14585290  0.10897397     1.26100
H234        H  0.45842375  0.23950693  0.10038831     0.40200
O235        O  0.42620549  0.32405998  0.33058165    -0.79800
O236        O  0.38800566  0.06652882  0.36956851    -0.64400
O237        O  0.43117316  0.22839930  0.34836373    -1.11000
C238        C  0.41647734  0.15017869  0.24940441     1.07100
O239        O  0.41855974  0.05233715  0.34078327    -0.77700
O240        O  0.46066967  0.13646423  0.30386783    -0.65200
Ni241      Ni  0.41992299  0.27949984  0.36637167     1.34900
C242        C  0.47641874  0.19182601  0.30167545     0.85900
O243        O  0.41544924  0.16387084  0.40251015    -0.78200
O244        O  0.41348860  0.24478100  0.40553071    -0.88500
C245        C  0.39770289  0.03427788  0.36055417     0.85400
O246        O  0.37729262  0.23068449  0.35717090    -0.66700
O247        O  0.41596135  0.10689957  0.26177077    -0.86000
C248        C  0.35947598  0.17606828  0.36172782     0.86300
C249        C  0.41377346  0.20228704  0.41763279     1.07800
H250        H  0.38219401  0.11432887  0.31353522     0.39600
O251        O  0.40375184  0.13234953  0.31840509    -1.08600
O252        O  0.46451266  0.22309807  0.30241308    -0.65300
Ni253      Ni  0.42434025  0.21172122  0.30597898     1.26300
O254        O  0.36915231  0.14090153  0.36380422    -0.65500
O255        O  0.41756066  0.19213672  0.26411474    -0.77800
C256        C  0.43818302  0.32918353  0.30502475     0.85700
O257        O  0.44360428  0.29172461  0.29451115    -0.65000
Ni258      Ni  0.41702882  0.08275288  0.30216277     1.27400
Ni259      Ni  0.40905831  0.14778797  0.36040319     1.26100
H260        H  0.45267969  0.24466751  0.35285358     0.40200
O261        O  0.42969383  0.45876534  0.50243183    -0.79800
O262        O  0.37051148  0.60017109  0.46120704    -0.64400
O263        O  0.42753585  0.55795285  0.48631063    -1.11000
C264        C  0.40559884  0.57955309  0.08368228     1.07100
O265        O  0.39658998  0.67372757  0.99284136    -0.77700
O266        O  0.44739084  0.68078319  0.02180935    -0.65200
Ni267      Ni  0.43071508  0.49809952  0.46647622     1.34900
C268        C  0.46332875  0.65865559  0.02885842     0.85900
O269        O  0.40683686  0.57618973  0.43045529    -0.78200
O270        O  0.43190454  0.52875083  0.42757586    -0.88500
C271        C  0.37326857  0.64768441  0.47014260     0.85400
O272        O  0.38787132  0.44466653  0.46362994    -0.66700
O273        O  0.40996391  0.62588342  0.07082644    -0.86000
C274        C  0.36404747  0.44752679  0.46635027     0.86300
C275        C  0.42004677  0.55507282  0.41556042     1.07800
H276        H  0.36916920  0.54418678  0.01988223     0.39600
O277        O  0.39073388  0.56995215  0.01522815    -1.08600
O278        O  0.45121427  0.60519148  0.03551195    -0.65300
Ni279      Ni  0.41247572  0.53494531  0.02825361     1.26300
O280        O  0.36452486  0.49530533  0.46977978    -0.65500
O281        O  0.40128455  0.53484516  0.06912147    -0.77800
C282        C  0.43397992  0.45550568  0.02908663     0.85700
O283        O  0.43271562  0.49660999  0.04128397    -0.65000
Ni284      Ni  0.40408236  0.64658702  0.03070160     1.27400
Ni285      Ni  0.39834248  0.57674689  0.47239720     1.26100
H286        H  0.44759622  0.59316066  0.48417862     0.40200
O287        O  0.43064692  0.44888999  0.25029146    -0.79800
O288        O  0.38199028  0.61608114  0.21254386    -0.64400
O289        O  0.42841908  0.54840730  0.23539391    -1.11000
C290        C  0.41149433  0.58975621  0.33366750     1.07100
O291        O  0.40383875  0.68975119  0.24535987    -0.77700
O292        O  0.45320034  0.69316891  0.27414231    -0.65200
Ni293      Ni  0.41965389  0.47716152  0.21613337     1.34900
C294        C  0.46923409  0.67027855  0.27884941     0.85900
O295        O  0.41294167  0.58093907  0.18115433    -0.78200
O296        O  0.40824174  0.49409830  0.17803867    -0.88500
C297        C  0.38740475  0.66502301  0.22221524     0.85400
O298        O  0.37871822  0.43852408  0.22996241    -0.66700
O299        O  0.41470355  0.63543408  0.32148780    -0.86000
C300        C  0.35910226  0.45325027  0.22655481     0.86300
C301        C  0.40964658  0.53811649  0.16592176     1.07800
H302        H  0.37570560  0.55745792  0.26873574     0.39600
O303        O  0.39738844  0.58331064  0.26463607    -1.08600
O304        O  0.45755966  0.61590693  0.28312464    -0.65300
Ni305      Ni  0.41827057  0.54580410  0.27736694     1.26300
O306        O  0.36612709  0.50520663  0.21981863    -0.65500
O307        O  0.40853782  0.54662570  0.31869025    -0.77800
C308        C  0.43771213  0.46283985  0.27749266     0.85700
O309        O  0.43772713  0.50534053  0.28976565    -0.65000
Ni310      Ni  0.40990924  0.65842636  0.28198600     1.27400
Ni311      Ni  0.40475464  0.58126151  0.22293237     1.26100
H312        H  0.44992693  0.57722156  0.23208843     0.40200
C313        C  0.42098403  0.55843730  0.38244688    -0.15300
C314        C  0.41122121  0.58820700  0.36676740    -0.30500
H315        H  0.42952912  0.53454753  0.37051578     0.13700
H316        H  0.40416068  0.61464525  0.37852736     0.14300
C317        C  0.40670408  0.57976196  0.11693874    -0.15300
C318        C  0.40704461  0.53751252  0.13279322    -0.30500
H319        H  0.40846802  0.61694412  0.12860323     0.18500
H320        H  0.40555610  0.50068111  0.12100731     0.14300
C321        C  0.44351051  0.42491911  0.29660160    -0.15300
C322        C  0.44368653  0.37830605  0.28573544    -0.30500
H323        H  0.44359890  0.43100147  0.32059220     0.13700
H324        H  0.44464378  0.37296731  0.26180021     0.14300
C325        C  0.44348367  0.37561832  0.03735238    -0.15300
C326        C  0.44017272  0.41855593  0.04838945    -0.30500
H327        H  0.44557242  0.37198412  0.01343170     0.13700
H328        H  0.43901601  0.42316342  0.07237133     0.14300
C329        C  0.41174833  0.15633762  0.46677524    -0.15300
C330        C  0.41206012  0.19907239  0.45084295    -0.30500
H331        H  0.41284773  0.12197509  0.45509224     0.13700
H332        H  0.41177098  0.23420364  0.46262297     0.14300
C333        C  0.41625700  0.15115786  0.21617264    -0.15300
C334        C  0.42584017  0.20075865  0.20067917    -0.30500
H335        H  0.40934404  0.11074641  0.20424878     0.13700
H336        H  0.43332895  0.24115698  0.21289094     0.14300
C337        C  0.32656916  0.15386898  0.36828178    -0.15300
C338        C  0.31510352  0.18882014  0.36581531    -0.30500
H339        H  0.31338335  0.11254659  0.38008511     0.13700
H340        H  0.32853548  0.23064887  0.35452924     0.14300
C341        C  0.30945740  0.37533684  0.45198209    -0.15300
C342        C  0.33531118  0.39012208  0.46692524    -0.30500
H343        H  0.30667944  0.40854230  0.44134835     0.13700
H344        H  0.33741541  0.35563886  0.47704109     0.14300
C345        C  0.32858984  0.20642207  0.12585439    -0.15300
C346        C  0.33537396  0.16497401  0.12102287    -0.30500
H347        H  0.34624323  0.25224205  0.12257052     0.13700
H348        H  0.31834690  0.11924511  0.12549131     0.14300
C349        C  0.30834898  0.38525494  0.20591092    -0.15300
C350        C  0.32705375  0.40535791  0.22964727    -0.30500
H351        H  0.31265410  0.41318996  0.18673295     0.13700
H352        H  0.32249467  0.37508722  0.24782975     0.14300
C353        C  0.23536787  0.19258919  0.28146399    -0.15300
C354        C  0.21650771  0.20456714  0.29617974    -0.30500
H355        H  0.24954388  0.18105093  0.29413692     0.13700
H356        H  0.20162702  0.21480792  0.28387822     0.14300
C357        C  0.23893241  0.19867934  0.04781593    -0.15300
C358        C  0.21815399  0.18686263  0.02634771    -0.30500
H359        H  0.26142257  0.20664812  0.04177511     0.13700
H360        H  0.19620790  0.18165351  0.03214845     0.14300
C361        C  0.03416454  0.28561300  0.29667675    -0.15300
C362        C  0.51012084  0.22160816  0.29707687    -0.30500
H363        H  0.02273348  0.31010174  0.29769686     0.13700
H364        H  0.52118945  0.19652821  0.29837412     0.14300
C365        C  0.16058723  0.27521792  0.19460171    -0.15300
C366        C  0.15939861  0.28160923  0.22426936    -0.30500
H367        H  0.14883488  0.28886282  0.17962134     0.13700
H368        H  0.16920604  0.26395106  0.23926598     0.14300
C369        C  0.12755783  0.43356347  0.37229854    -0.15300
C370        C  0.11409413  0.39096885  0.39263939    -0.30500
H371        H  0.13569660  0.47866586  0.37844967     0.13700
H372        H  0.10638500  0.34591415  0.38688733     0.14300
C373        C  0.10795707  0.39620592  0.14309837    -0.15300
C374        C  0.11500720  0.43624556  0.12173577    -0.30500
H375        H  0.10299176  0.35275104  0.13722368     0.13700
H376        H  0.12063113  0.48010064  0.12765305     0.14300
C377        C  0.02382788  0.27882734  0.04332048    -0.15300
C378        C  0.51378054  0.22817026  0.04529485    -0.30500
H379        H  0.01101806  0.30064536  0.04194747     0.13700
H380        H  0.52718926  0.20938033  0.05193071     0.14300
C381        C  0.16057453  0.29090501  0.48014873    -0.15300
C382        C  0.15805035  0.27569585  0.45134556    -0.30500
H383        H  0.17277227  0.27902308  0.49558133     0.13700
H384        H  0.14350636  0.28294574  0.43660132     0.14300
C385        C  0.35686719  0.94760980  0.38619691    -0.15300
C386        C  0.38412119  0.97420012  0.37222910    -0.30500
H387        H  0.34589055  0.97218325  0.39075208     0.13700
H388        H  0.39406287  0.94883477  0.36536176     0.14300
C389        C  0.34798080  0.70410366  0.46430618    -0.15300
C390        C  0.35932059  0.67367770  0.45192273    -0.30500
H391        H  0.34786938  0.70809497  0.48842609     0.13700
H392        H  0.35654323  0.66458440  0.42810945     0.14300
C393        C  0.19454210  0.62282751  0.45173315    -0.15300
C394        C  0.19299299  0.57463528  0.46267353    -0.30500
H395        H  0.17320206  0.62049604  0.44621027     0.13700
H396        H  0.21366722  0.57452224  0.46801596     0.14300
C397        C  0.35710808  0.94216349  0.13173168    -0.15300
C398        C  0.38500227  0.97007926  0.11880316    -0.30500
H399        H  0.34510983  0.96529647  0.13470759     0.13700
H400        H  0.39596295  0.94583288  0.11339933     0.14300
C401        C  0.35871631  0.71512712  0.21839630    -0.15300
C402        C  0.37477108  0.69458250  0.20515624    -0.30500
H403        H  0.35515403  0.71068069  0.24238013     0.13700
H404        H  0.37524640  0.69273270  0.18095447     0.14300
C405        C  0.20323956  0.60818109  0.19338558    -0.15300
C406        C  0.20018702  0.56754389  0.21296531    -0.30500
H407        H  0.18299873  0.59879348  0.18062340     0.13700
H408        H  0.21941035  0.57432809  0.22650265     0.14300
C409        C  0.27107812  0.77026136  0.28506031    -0.15300
C410        C  0.29420878  0.77380591  0.30106691    -0.30500
H411        H  0.25106160  0.76518675  0.29647908     0.13700
H412        H  0.31418553  0.77880340  0.28959813     0.14300
C413        C  0.29703553  0.75608231  0.05335247    -0.15300
C414        C  0.27788892  0.76682978  0.03822793    -0.30500
H415        H  0.31304371  0.74836047  0.04136243     0.13700
H416        H  0.26291647  0.77675441  0.05068555     0.14300
C417        C  0.50308202  0.70576747  0.27963754    -0.15300
C418        C  0.01390216  0.75200837  0.28990054    -0.30500
H419        H  0.51467878  0.68259171  0.27442655     0.13700
H420        H  0.00220981  0.77564764  0.29310678     0.14300
C421        C  0.12759754  0.00217964  0.36940141    -0.15300
C422        C  0.15525821  0.02918369  0.38265401    -0.30500
H423        H  0.11777373  0.02760456  0.36236148     0.13700
H424        H  0.16651199  0.00491752  0.38658230     0.14300
C425        C  0.18487500  0.83549080  0.37875768    -0.15300
C426        C  0.20342740  0.81828269  0.36825357    -0.30500
H427        H  0.19107452  0.86147537  0.39909993     0.13700
H428        H  0.19827407  0.79499704  0.34711826     0.14300
C429        C  0.09148009  0.56419909  0.29876148    -0.15300
C430        C  0.08749563  0.60579965  0.28718889    -0.30500
H431        H  0.09270805  0.56124955  0.32284256     0.13700
H432        H  0.08589354  0.60865021  0.26315424     0.14300
C433        C  0.01859694  0.74808546  0.04442028    -0.15300
C434        C  0.49732760  0.69291906  0.02976540    -0.30500
H435        H  0.00778103  0.77356671  0.04629286     0.13700
H436        H  0.50816477  0.66744102  0.02782620     0.14300
C437        C  0.16512206  0.03692777  0.12878614    -0.15300
C438        C  0.14190568  0.01413087  0.10883817    -0.30500
H439        H  0.17300718  0.00965417  0.13793278     0.13700
H440        H  0.13615498  0.04275371  0.09739465     0.14300
C441        C  0.19215028  0.83926354  0.12994457    -0.15300
C442        C  0.20868978  0.81780380  0.11900980    -0.30500
H443        H  0.19987695  0.86628034  0.14995702     0.13700
H444        H  0.20173914  0.79336424  0.09815533     0.14300
C445        C  0.08215958  0.58363356  0.06298255    -0.15300
C446        C  0.07569610  0.56524552  0.03453989    -0.30500
H447        H  0.08741935  0.55915417  0.07855614     0.13700
H448        H  0.07115840  0.59047890  0.01878598     0.14300
C449        C  0.10620899  0.76878904  0.46716072    -0.15300
C450        C  0.09315269  0.78681649  0.44729337    -0.30500
H451        H  0.11434833  0.74050487  0.46017327     0.13700
H452        H  0.08467679  0.81438623  0.45463761     0.14300
C453        C  0.11583767  0.81070288  0.21923499    -0.15300
C454        C  0.10086378  0.82064145  0.19804213    -0.30500
H455        H  0.12812364  0.78894483  0.21374351     0.13700
H456        H  0.08855447  0.84244394  0.20325923     0.14300
O457        O  0.09309068  0.64332838  0.59829025    -0.79800
O458        O  0.13779333  0.91317463  0.61061225    -0.64400
O459        O  0.09146477  0.74674288  0.60074583    -1.11000
C460        C  0.10905663  0.78578577  0.49888885     1.07100
O461        O  0.11727406  0.93078010  0.57150295    -0.77700
O462        O  0.06965564  0.83014414  0.54978099    -0.65200
Ni463      Ni  0.09855227  0.69964536  0.62773867     1.34900
C464        C  0.05269146  0.77494757  0.54784805     0.85900
O465        O  0.10444411  0.82691036  0.64735093    -0.78200
O466        O  0.10414474  0.74745377  0.66183320    -0.88500
C467        C  0.13149329  0.94611682  0.59624839     0.85400
O468        O  0.14151582  0.74105232  0.62082146    -0.66700
O469        O  0.10638256  0.82897157  0.50576449    -0.86000
C470        C  0.16105862  0.79583809  0.62070221     0.86300
C471        C  0.10412531  0.79374820  0.66742770     1.07800
H472        H  0.14591488  0.84851317  0.56233421     0.39600
O473        O  0.12418514  0.83277172  0.56512976    -1.08600
O474        O  0.06338018  0.74138035  0.54841999    -0.65300
Ni475      Ni  0.10217336  0.74971756  0.55932382     1.26300
O476        O  0.15343967  0.83387939  0.61704285    -0.65500
O477        O  0.11315306  0.75595677  0.51816974    -0.77800
C478        C  0.08446131  0.63140196  0.57138461     0.85700
O479        O  0.08161812  0.66626034  0.55456222    -0.65000
Ni480      Ni  0.11229091  0.87630044  0.54053864     1.27400
Ni481      Ni  0.11513906  0.83010351  0.60653077     1.26100
H482        H  0.06995714  0.73383340  0.60243877     0.40200
O483        O  0.08446569  0.63652152  0.84947200    -0.79800
O484        O  0.12513465  0.90603122  0.86417855    -0.64400
O485        O  0.08545635  0.74101698  0.85139411    -1.11000
C486        C  0.10914280  0.79648916  0.75225367     1.07100
O487        O  0.09648068  0.91289896  0.82930536    -0.77700
O488        O  0.05498002  0.80612348  0.80163611    -0.65200
Ni489      Ni  0.09577552  0.69802894  0.87768628     1.34900
C490        C  0.04402074  0.75170486  0.79722265     0.85900
O491        O  0.09388709  0.81411917  0.89961340    -0.78200
O492        O  0.10745856  0.75076041  0.91098883    -0.88500
C493        C  0.11585500  0.93547903  0.85073812     0.85400
O494        O  0.13623662  0.74101557  0.86247429    -0.66700
O495        O  0.09916134  0.82977282  0.75936329    -0.86000
C496        C  0.15462299  0.79554141  0.86704569     0.86300
C497        C  0.10106931  0.78863386  0.91842161     1.07800
H498        H  0.13736005  0.85555219  0.81567825     0.39600
O499        O  0.11528576  0.83250006  0.81828191    -1.08600
O500        O  0.06071049  0.72974061  0.79688314    -0.65300
Ni501      Ni  0.10093720  0.75274070  0.81096492     1.26300
O502        O  0.14533513  0.83168484  0.86853089    -0.65500
O503        O  0.11565840  0.76938413  0.77118989    -0.77800
C504        C  0.08366899  0.63154835  0.82137457     0.85700
O505        O  0.08865235  0.67276528  0.80383989    -0.65000
Ni506      Ni  0.09746922  0.86756166  0.79556778     1.27400
Ni507      Ni  0.10547209  0.82349465  0.85903070     1.26100
H508        H  0.06342309  0.72367150  0.85175516     0.40200
O509        O  0.22520853  0.76078181  0.67427660    -0.79800
O510        O  0.32872945  0.71535886  0.69083036    -0.64400
O511        O  0.28679893  0.79614748  0.68298823    -1.11000
C512        C  0.30059525  0.78260567  0.57998683     1.07100
O513        O  0.36501504  0.77307945  0.65832722    -0.77700
O514        O  0.35967606  0.86173198  0.63417654    -0.65200
Ni515      Ni  0.25256387  0.77728148  0.70765974     1.34900
C516        C  0.34606912  0.89005767  0.63458451     0.85900
O517        O  0.30880294  0.76058736  0.73093214    -0.78200
O518        O  0.27689759  0.79130914  0.74307910    -0.88500
C519        C  0.35461855  0.73415194  0.67861768     0.85400
O520        O  0.23591680  0.69532370  0.71187634    -0.66700
O521        O  0.32569327  0.78774485  0.58847740    -0.86000
C522        C  0.24381992  0.66037227  0.70268532     0.86300
C523        C  0.29640770  0.77716232  0.74998261     1.07800
H524        H  0.29254871  0.70951580  0.63954642     0.39600
O525        O  0.30543663  0.75005044  0.64556269    -1.08600
O526        O  0.31688637  0.86540883  0.63560363    -0.65300
Ni527      Ni  0.28219401  0.78635547  0.64048882     1.26300
O528        O  0.26954791  0.67769668  0.69005766    -0.65500
O529        O  0.27966003  0.77661963  0.59787482    -0.77800
C530        C  0.22923818  0.78755144  0.64969767     0.85700
O531        O  0.25562236  0.81675888  0.63758554    -0.65000
Ni532      Ni  0.34351087  0.78084429  0.62479472     1.27400
Ni533      Ni  0.30707032  0.75453778  0.68811075     1.26100
H534        H  0.30186887  0.83677749  0.68726504     0.40200
O535        O  0.21217078  0.74991818  0.92113050    -0.79800
O536        O  0.31749108  0.71221743  0.95090614    -0.64400
O537        O  0.27299690  0.78786559  0.93784701    -1.11000
C538        C  0.29174347  0.77223504  0.83591406     1.07100
O539        O  0.35458193  0.77208653  0.91950216    -0.77700
O540        O  0.34945246  0.85392752  0.88835440    -0.65200
Ni541      Ni  0.23526904  0.76385517  0.95751683     1.34900
C542        C  0.33619121  0.88270714  0.88966505     0.85900
O543        O  0.29129869  0.75263757  0.98878772    -0.78200
O544        O  0.25504787  0.77555414  0.99528380    -0.88500
C545        C  0.34466916  0.73487540  0.94073411     0.85400
O546        O  0.21974998  0.68208531  0.95987049    -0.66700
O547        O  0.31593562  0.77345546  0.84471797    -0.86000
C548        C  0.23032569  0.64993077  0.95346238     0.86300
C549        C  0.27501772  0.76516707  0.00534350     1.07800
H550        H  0.28218558  0.70360512  0.89690960     0.39600
O551        O  0.29506521  0.74407490  0.90302154    -1.08600
O552        O  0.30726655  0.85907471  0.89246335    -0.65300
Ni553      Ni  0.27225987  0.78039792  0.89558981     1.26300
O554        O  0.25792908  0.67004768  0.94540685    -0.65500
O555        O  0.27202936  0.77122354  0.85355540    -0.77800
C556        C  0.21948400  0.78202326  0.89809285     0.85700
O557        O  0.24720775  0.81301712  0.88979728    -0.65000
Ni558      Ni  0.33343594  0.77229770  0.88324178     1.27400
Ni559      Ni  0.29402366  0.74820304  0.94566414     1.26100
H560        H  0.28683538  0.82853049  0.94315903     0.40200
O561        O  0.08498156  0.52158376  0.99405086    -0.79800
O562        O  0.13727221  0.35339151  0.97429985    -0.64400
O563        O  0.09030278  0.42324482  0.99080630    -1.11000
C564        C  0.12816940  0.43929477  0.58822053     1.07100
O565        O  0.13293891  0.30725660  0.51690907    -0.77700
O566        O  0.08317602  0.30940108  0.53981944    -0.65200
Ni567      Ni  0.09707156  0.48547154  0.96477572     1.34900
C568        C  0.06636796  0.33062361  0.54442204     0.85900
O569        O  0.10003006  0.37076698  0.94238911    -0.78200
O570        O  0.10940665  0.45862371  0.93070953    -0.88500
C571        C  0.13783243  0.31417924  0.98941806     0.85400
O572        O  0.13798350  0.53022150  0.97869769    -0.66700
O573        O  0.12203214  0.38797610  0.58184526    -0.86000
C574        C  0.15807003  0.51638833  0.97641643     0.86300
C575        C  0.10491137  0.40903482  0.92335342     1.07800
H576        H  0.15778724  0.44374134  0.52317542     0.39600
O577        O  0.13592501  0.41524948  0.52236509    -1.08600
O578        O  0.07735223  0.38550484  0.54595231    -0.65300
Ni579      Ni  0.11382740  0.45282496  0.52973278     1.26300
O580        O  0.15130808  0.46380090  0.97160215    -0.65500
O581        O  0.13093590  0.47588878  0.56865315    -0.77800
C582        C  0.08544538  0.52087831  0.51872941     0.85700
O583        O  0.09345990  0.49453214  0.53653928    -0.65000
Ni584      Ni  0.12668371  0.35062876  0.54760007     1.27400
Ni585      Ni  0.11408582  0.38883147  0.98222131     1.26100
H586        H  0.06867438  0.39321094  0.99024993     0.40200
O587        O  0.09486346  0.53031882  0.74079675    -0.79800
O588        O  0.14956719  0.36450003  0.72787520    -0.64400
O589        O  0.10016217  0.43153021  0.73785979    -1.11000
C590        C  0.11726691  0.42405589  0.83933063     1.07100
O591        O  0.12898524  0.30166170  0.76571058    -0.77700
O592        O  0.07744793  0.30082326  0.78742645    -0.65200
Ni593      Ni  0.10884044  0.49616713  0.71259576     1.34900
C594        C  0.06046972  0.32234425  0.78939306     0.85900
O595        O  0.11687609  0.38597863  0.69079249    -0.78200
O596        O  0.12330211  0.47208529  0.67959004    -0.88500
C597        C  0.14519319  0.31986083  0.74201312     0.85400
O598        O  0.14912166  0.54126041  0.72824064    -0.66700
O599        O  0.11337479  0.37451727  0.83225922    -0.86000
C600        C  0.16964346  0.52828880  0.72760770     0.86300
C601        C  0.12128834  0.42472476  0.67217888     1.07800
H602        H  0.15410747  0.43796034  0.77750185     0.39600
O603        O  0.13255204  0.41003001  0.77369808    -1.08600
O604        O  0.07139977  0.37746161  0.78933614    -0.65300
Ni605      Ni  0.11031163  0.44792373  0.77953999     1.26300
O606        O  0.16347339  0.47549734  0.72507838    -0.65500
O607        O  0.12135521  0.46233364  0.82035066    -0.77800
C608        C  0.08799746  0.52537523  0.76815730     0.85700
O609        O  0.08963150  0.48956771  0.78532474    -0.65000
Ni610      Ni  0.12060711  0.34145213  0.79719695     1.27400
Ni611      Ni  0.12538875  0.39896551  0.73205476     1.26100
H612        H  0.07881238  0.40096877  0.73525725     0.40200
O613        O  0.29932451  0.19871031  0.65826278    -0.79800
O614        O  0.20155111  0.26297015  0.69855562    -0.64400
O615        O  0.24196268  0.18241435  0.67596015    -1.11000
C616        C  0.21535514  0.20406690  0.57817087     1.07100
O617        O  0.16191186  0.20954641  0.66816434    -0.77700
O618        O  0.16388203  0.12125921  0.63833945    -0.65200
Ni619      Ni  0.27970245  0.19999189  0.69469819     1.34900
C620        C  0.17777300  0.09420324  0.63363295     0.85900
O621        O  0.22494116  0.21247201  0.73023083    -0.78200
O622        O  0.26527679  0.20172528  0.73410683    -0.88500
C623        C  0.17486526  0.24723067  0.68904601     0.85400
O624        O  0.29881985  0.28222660  0.69059941    -0.66700
O625        O  0.19095323  0.19570853  0.59068068    -0.86000
C626        C  0.28889083  0.31666380  0.68996899     0.86300
C627        C  0.24387138  0.20615063  0.74558398     1.07800
H628        H  0.23130332  0.27427758  0.64176176     0.39600
O629        O  0.21924934  0.23311818  0.64669227    -1.08600
O630        O  0.20653429  0.11987097  0.62955191    -0.65300
Ni631      Ni  0.24129988  0.19784019  0.63398599     1.26300
O632        O  0.26041557  0.29985403  0.69015462    -0.65500
O633        O  0.23880631  0.21276115  0.59273907    -0.77800
C634        C  0.29072669  0.17914266  0.63195870     0.85700
O635        O  0.26481711  0.16543827  0.62159946    -0.65000
Ni636      Ni  0.17865551  0.20231293  0.63067329     1.27400
Ni637      Ni  0.22239378  0.22356173  0.68849319     1.26100
H638        H  0.22752405  0.14133739  0.67973424     0.40200
O639        O  0.29273152  0.19982839  0.91435489    -0.79800
O640        O  0.19414940  0.26188357  0.94301615    -0.64400
O641        O  0.23277494  0.17663228  0.92550638    -1.11000
C642        C  0.21624990  0.20510805  0.82571330     1.07100
O643        O  0.15631683  0.21208981  0.91026836    -0.77700
O644        O  0.15882531  0.12120860  0.88209104    -0.65200
Ni645      Ni  0.26692766  0.18774386  0.94863901     1.34900
C646        C  0.17206432  0.09251416  0.87845991     0.85900
O647        O  0.21270965  0.20732130  0.97708187    -0.78200
O648        O  0.24519101  0.17671619  0.98569897    -0.88500
C649        C  0.16786933  0.24665564  0.93270967     0.85400
O650        O  0.28671147  0.27029961  0.95319897    -0.66700
O651        O  0.19102457  0.19675128  0.83622374    -0.86000
C652        C  0.27932866  0.30795371  0.94834351     0.86300
C653        C  0.22578761  0.18985876  0.99441876     1.07800
H654        H  0.22758720  0.27253568  0.88882446     0.39600
O655        O  0.21461685  0.23129346  0.89331294    -1.08600
O656        O  0.20114584  0.11696291  0.87641867    -0.65300
Ni657      Ni  0.23665145  0.19414386  0.88358180     1.26300
O658        O  0.25275753  0.29452730  0.93919566    -0.65500
O659        O  0.23831858  0.21165739  0.84202272    -0.77800
C660        C  0.28730983  0.18013388  0.88773250     0.85700
O661        O  0.26145156  0.16142522  0.87520219    -0.65000
Ni662      Ni  0.17560097  0.20333779  0.87453476     1.27400
Ni663      Ni  0.21402951  0.22011660  0.93524553     1.26100
H664        H  0.21705176  0.13583635  0.92816237     0.40200
O665        O  0.42559216  0.33263010  0.58453690    -0.79800
O666        O  0.39538022  0.07643121  0.62034317    -0.64400
O667        O  0.43054294  0.23597993  0.59746958    -1.11000
C668        C  0.41320989  0.15688300  0.49998347     1.07100
O669        O  0.42664415  0.06752268  0.58980561    -0.77700
O670        O  0.46661786  0.16597179  0.55630434    -0.65200
Ni671      Ni  0.41785148  0.28238277  0.61819700     1.34900
C672        C  0.47671304  0.21953004  0.55035279     0.85900
O673        O  0.42277671  0.17560513  0.65179344    -0.78200
O674        O  0.41028046  0.24286445  0.65620607    -0.88500
C675        C  0.40553381  0.04613461  0.60958148     0.85400
O676        O  0.37650017  0.23007360  0.60598980    -0.66700
O677        O  0.42238850  0.12556180  0.51191914    -0.86000
C678        C  0.36055257  0.17588595  0.61255534     0.86300
C679        C  0.41631662  0.20682986  0.66765866     1.07800
H680        H  0.38290253  0.11249513  0.56605954     0.39600
O681        O  0.40483540  0.13761020  0.56920825    -1.08600
O682        O  0.45921888  0.23902146  0.54680750    -0.65300
Ni683      Ni  0.41769907  0.21388634  0.55603533     1.26300
O684        O  0.37229767  0.14445673  0.61659360    -0.65500
O685        O  0.40628020  0.18870180  0.51523462    -0.77800
C686        C  0.43026719  0.33239224  0.55672977     0.85700
O687        O  0.42907423  0.28984473  0.54326714    -0.65000
Ni688      Ni  0.42468126  0.10043412  0.55184733     1.27400
Ni689      Ni  0.41310343  0.15665495  0.61044094     1.26100
H690        H  0.45265886  0.25590894  0.59926230     0.40200
O691        O  0.41628693  0.31231873  0.82996525    -0.79800
O692        O  0.38568681  0.06516219  0.86792694    -0.64400
O693        O  0.42930456  0.22670003  0.84771304    -1.11000
C694        C  0.41633643  0.15617794  0.74867883     1.07100
O695        O  0.41537541  0.04939318  0.83822697    -0.77700
O696        O  0.46052395  0.14132396  0.80637734    -0.65200
Ni697      Ni  0.42044957  0.28002508  0.86681056     1.34900
C698        C  0.47548492  0.19614293  0.80173248     0.85900
O699        O  0.41295117  0.16186892  0.90161952    -0.78200
O700        O  0.42389838  0.25421510  0.90603215    -0.88500
C701        C  0.39473405  0.03229278  0.85829679     0.85400
O702        O  0.37680105  0.23032629  0.86803025    -0.66700
O703        O  0.41952316  0.11637103  0.76046260    -0.86000
C704        C  0.35822804  0.17527316  0.86666524     0.86300
C705        C  0.41941915  0.20672982  0.91727954     1.07800
H706        H  0.38044320  0.11260378  0.81214615     0.39600
O707        O  0.40201202  0.13180645  0.81723254    -1.08600
O708        O  0.46244012  0.22533583  0.79999403    -0.65300
Ni709      Ni  0.42166508  0.21128009  0.80562121     1.26300
O710        O  0.36695905  0.13914822  0.86222007    -0.65500
O711        O  0.41339352  0.19294240  0.76405820    -0.77800
C712        C  0.42878314  0.32039981  0.80442426     0.85700
O713        O  0.43975406  0.29077581  0.79529308    -0.65000
Ni714      Ni  0.41734738  0.08624124  0.80042571     1.27400
Ni715      Ni  0.40692241  0.14633507  0.85935012     1.26100
H716        H  0.45080345  0.24165941  0.85156078     0.40200
O717        O  0.42836567  0.44263409  0.00162331    -0.79800
O718        O  0.37069995  0.59385332  0.96459970    -0.64400
O719        O  0.42397063  0.54029661  0.98640321    -1.11000
C720        C  0.40254931  0.58538440  0.58359550     1.07100
O721        O  0.38851772  0.67467914  0.49359159    -0.77700
O722        O  0.43987045  0.69379844  0.52469699    -0.65200
Ni723      Ni  0.42183781  0.47492880  0.96627210     1.34900
C724        C  0.45904874  0.67922841  0.53168925     0.85900
O725        O  0.40455655  0.56631032  0.93168945    -0.78200
O726        O  0.41638859  0.49783851  0.92726222    -0.88500
C727        C  0.37577347  0.64312274  0.97336606     0.85400
O728        O  0.37886269  0.42638370  0.97199385    -0.66700
O729        O  0.40198861  0.62770081  0.57127492    -0.86000
C730        C  0.35708596  0.43601984  0.97195118     0.86300
C731        C  0.41068199  0.53434261  0.91596289     1.07800
H732        H  0.36865777  0.54658355  0.51793895     0.39600
O733        O  0.38979132  0.57692691  0.51407426    -1.08600
O734        O  0.45104098  0.62616714  0.53578758    -0.65300
Ni735      Ni  0.41545500  0.55021352  0.52775618     1.26300
O736        O  0.36098418  0.48718253  0.97123296    -0.65500
O737        O  0.40317676  0.54559891  0.56857656    -0.77800
C738        C  0.43664799  0.47306270  0.52958153     0.85700
O739        O  0.43974597  0.51942476  0.54040545    -0.65000
Ni740      Ni  0.39607676  0.64797555  0.53112867     1.27400
Ni741      Ni  0.39719901  0.56644891  0.97369853     1.26100
H742        H  0.44483282  0.57277640  0.98370968     0.40200
O743        O  0.41176640  0.43219172  0.74910556    -0.79800
O744        O  0.38300840  0.62587446  0.71719914    -0.64400
O745        O  0.42411168  0.54570613  0.73477300    -1.11000
C746        C  0.40984254  0.58393956  0.83500186     1.07100
O747        O  0.41422644  0.69856286  0.74794816    -0.77700
O748        O  0.45772552  0.68999446  0.78035776    -0.65200
Ni749      Ni  0.41580717  0.47682330  0.71361731     1.34900
C750        C  0.47116299  0.66155657  0.78288490     0.85900
O751        O  0.40687292  0.58027777  0.68153474    -0.78200
O752        O  0.41957412  0.51277315  0.67546597    -0.88500
C753        C  0.39344701  0.67691808  0.72779829     0.85400
O754        O  0.37238049  0.44152495  0.71214398    -0.66700
O755        O  0.41422134  0.63169285  0.82420905    -0.86000
C756        C  0.35395584  0.45930844  0.71592610     0.86300
C757        C  0.41345143  0.54954903  0.66503959     1.07800
H758        H  0.37657579  0.56392504  0.77159767     0.39600
O759        O  0.39819446  0.58681284  0.76660483    -1.08600
O760        O  0.45678839  0.60629558  0.78327399    -0.65300
Ni761      Ni  0.41572807  0.54253714  0.77696513     1.26300
O762        O  0.36252337  0.51207144  0.72247873    -0.65500
O763        O  0.40729340  0.54231735  0.81883713    -0.77800
C764        C  0.42352361  0.44734402  0.77508559     0.85700
O765        O  0.43243216  0.49683884  0.78614750    -0.65000
Ni766      Ni  0.41457234  0.66202490  0.78499607     1.27400
Ni767      Ni  0.40269792  0.58385993  0.72432985     1.26100
H768        H  0.44570534  0.57393122  0.73149119     0.40200
C769        C  0.41119439  0.53837725  0.88285605    -0.15300
C770        C  0.40794445  0.57829518  0.86802866    -0.30500
H771        H  0.41499849  0.50806408  0.87030651     0.13700
H772        H  0.40522294  0.60995449  0.88058132     0.14300
C773        C  0.40310033  0.58397156  0.61686590    -0.15300
C774        C  0.41342905  0.55418968  0.63189332    -0.30500
H775        H  0.39587016  0.60958089  0.62918209     0.18500
H776        H  0.42114418  0.52968798  0.61924552     0.14300
C777        C  0.42535535  0.40569047  0.79447475    -0.15300
C778        C  0.42888005  0.36304198  0.78401422    -0.30500
H779        H  0.42467073  0.41156832  0.81841512     0.13700
H780        H  0.43181419  0.35939922  0.76025152     0.14300
C781        C  0.43595088  0.38236916  0.53831488    -0.15300
C782        C  0.43870090  0.43151598  0.54945747    -0.30500
H783        H  0.43569693  0.37644359  0.51429231     0.13700
H784        H  0.43957201  0.43850501  0.57341049     0.14300
C785        C  0.41770594  0.15760596  0.96527300    -0.15300
C786        C  0.42134222  0.20445299  0.95037489    -0.30500
H787        H  0.41431662  0.11989662  0.95278884     0.13700
H788        H  0.42561836  0.24273111  0.96293619     0.14300
C789        C  0.41682525  0.15981336  0.71552491    -0.15300
C790        C  0.41518332  0.20173040  0.70072231    -0.30500
H791        H  0.41922874  0.12775111  0.70299921     0.13700
H792        H  0.41247270  0.23340585  0.71327580     0.14300
C793        C  0.32521216  0.15286854  0.87306740    -0.15300
C794        C  0.31366262  0.18769035  0.87008728    -0.30500
H795        H  0.31161245  0.11070153  0.88401364     0.13700
H796        H  0.32734682  0.22954954  0.85887202     0.14300
C797        C  0.30358768  0.37026218  0.95345583    -0.15300
C798        C  0.32618985  0.38296184  0.97309908    -0.30500
H799        H  0.30466909  0.40405604  0.93932019     0.13700
H800        H  0.32440672  0.34768921  0.98657265     0.14300
C801        C  0.31330608  0.17830575  0.61206830    -0.15300
C802        C  0.32788301  0.15100191  0.62003615    -0.30500
H803        H  0.32256837  0.21063921  0.59433632     0.13700
H804        H  0.31795989  0.11747445  0.63717606     0.14300
C805        C  0.31274666  0.37904686  0.68815272    -0.15300
C806        C  0.32098794  0.41481910  0.71194880    -0.30500
H807        H  0.32967131  0.39036039  0.67059815     0.13700
H808        H  0.30541848  0.40421961  0.73064638     0.14300
C809        C  0.24152085  0.20445136  0.77852694    -0.15300
C810        C  0.21909581  0.20674297  0.79287161    -0.30500
H811        H  0.25867212  0.20128793  0.79125270     0.13700
H812        H  0.20154568  0.20846002  0.78006108     0.14300
C813        C  0.21602912  0.20356292  0.54513107    -0.15300
C814        C  0.23454084  0.19091229  0.52997831    -0.30500
H815        H  0.20052219  0.21252385  0.53308684     0.13700
H816        H  0.24895252  0.17949113  0.54229400     0.14300
C817        C  0.02648124  0.28421497  0.79199556    -0.15300
C818        C  0.50940629  0.22734758  0.79727581    -0.30500
H819        H  0.01408780  0.30603478  0.78735807     0.13700
H820        H  0.52117371  0.20411821  0.80123318     0.14300
C821        C  0.15827592  0.27387962  0.70176108    -0.15300
C822        C  0.15963772  0.28801447  0.73074833    -0.30500
H823        H  0.14429897  0.28197747  0.68666726     0.13700
H824        H  0.17119754  0.27534708  0.74654117     0.14300
C825        C  0.11588815  0.43721734  0.87081519    -0.15300
C826        C  0.10681287  0.39615521  0.89195053    -0.30500
H827        H  0.12158711  0.48118358  0.87658964     0.13700
H828        H  0.10101119  0.35211927  0.88619314     0.14300
C829        C  0.12436194  0.41454835  0.64082204    -0.15300
C830        C  0.12979878  0.45442577  0.61976223    -0.30500
H831        H  0.12077343  0.37210972  0.63486772     0.13700
H832        H  0.13351980  0.49697082  0.62567336     0.14300
C833        C  0.03277036  0.29260996  0.54821413    -0.15300
C834        C  0.50983005  0.26411380  0.54759621    -0.30500
H835        H  0.02026940  0.31511787  0.54870479     0.13700
H836        H  0.51637596  0.30902603  0.55219638     0.14300
C837        C  0.15232764  0.28362929  0.97612987    -0.15300
C838        C  0.15025072  0.27035106  0.94678539    -0.30500
H839        H  0.16516647  0.27202594  0.99084200     0.13700
H840        H  0.13535115  0.27753793  0.93256649     0.14300
C841        C  0.35470004  0.94670544  0.88585908    -0.15300
C842        C  0.38102009  0.97250939  0.87011941    -0.30500
H843        H  0.34418908  0.97148575  0.89190080     0.13700
H844        H  0.39049007  0.94678759  0.86243934     0.14300
C845        C  0.36583340  0.71936604  0.95453606    -0.15300
C846        C  0.35614686  0.66326608  0.96063990    -0.30500
H847        H  0.38988885  0.75328309  0.95765043     0.13700
H848        H  0.33278279  0.62943870  0.95449077     0.14300
C849        C  0.20875639  0.58609574  0.95553931    -0.15300
C850        C  0.19000118  0.56510843  0.97920252    -0.30500
H851        H  0.20443255  0.55912753  0.93584588     0.13700
H852        H  0.19459878  0.59455689  0.99791290     0.14300
C853        C  0.36427405  0.95473752  0.63245990    -0.15300
C854        C  0.39215716  0.98466533  0.61933629    -0.30500
H855        H  0.35245961  0.97740278  0.63788598     0.13700
H856        H  0.40319974  0.96157039  0.61198240     0.14300
C857        C  0.37299554  0.70972207  0.68818724    -0.15300
C858        C  0.38101706  0.71184064  0.71679715    -0.30500
H859        H  0.37867047  0.68708254  0.67173988     0.13700
H860        H  0.37723702  0.73800561  0.73273317     0.14300
C861        C  0.22105592  0.59679804  0.70639379    -0.15300
C862        C  0.20148865  0.57857670  0.72966674    -0.30500
H863        H  0.21745474  0.56702074  0.68819451     0.13700
H864        H  0.20550279  0.61022394  0.74703655     0.14300
C865        C  0.30473422  0.77839098  0.78176396    -0.15300
C866        C  0.28549843  0.77289595  0.80372197    -0.30500
H867        H  0.32593762  0.78017929  0.78709324     0.13700
H868        H  0.26388320  0.76913732  0.79788504     0.14300
C869        C  0.29658946  0.78307112  0.54745055    -0.15300
C870        C  0.27719359  0.79566589  0.53426515    -0.30500
H871        H  0.31133637  0.77454975  0.53369871     0.13700
H872        H  0.26310160  0.80621620  0.54778426     0.14300
C873        C  0.50492830  0.69139387  0.78577789    -0.15300
C874        C  0.01091670  0.70910902  0.79229898    -0.30500
H875        H  0.51482624  0.66440919  0.78308193     0.13700
H876        H  0.00454936  0.66356754  0.79252223     0.14300
C877        C  0.12803813  0.99745632  0.85964479    -0.15300
C878        C  0.15395081  0.02774129  0.87604616    -0.30500
H879        H  0.11799127  0.02036693  0.84961092     0.13700
H880        H  0.16518649  0.00536235  0.88389970     0.14300
C881        C  0.18693449  0.81496909  0.87475474    -0.15300
C882        C  0.19435914  0.77410798  0.87883176    -0.30500
H883        H  0.20260091  0.85984904  0.88201705     0.13700
H884        H  0.17776518  0.72867073  0.87315801     0.14300
C885        C  0.08027365  0.56747669  0.78002300    -0.15300
C886        C  0.07907576  0.57612461  0.80931197    -0.30500
H887        H  0.08054490  0.59850982  0.76432422     0.13700
H888        H  0.07916631  0.54559345  0.82510553     0.14300
C889        C  0.01924318  0.74880236  0.54387050    -0.15300
C890        C  0.49214315  0.72492359  0.53571240    -0.30500
H891        H  0.00958258  0.77624060  0.54607103     0.13700
H892        H  0.50040018  0.77027892  0.53035754     0.14300
C893        C  0.16042466  0.03015001  0.63063205    -0.15300
C894        C  0.14106342  0.00500335  0.60760792    -0.30500
H895        H  0.16894628  0.00614440  0.64235594     0.13700
H896        H  0.13480831  0.03112871  0.59442833     0.14300
C897        C  0.19376085  0.81534212  0.62718881    -0.15300
C898        C  0.20120210  0.77523825  0.63371913    -0.30500
H899        H  0.21063933  0.86171111  0.63021229     0.13700
H900        H  0.18356511  0.72896622  0.63216495     0.14300
C901        C  0.08005099  0.57591331  0.55978267    -0.15300
C902        C  0.07737647  0.56259030  0.53065865    -0.30500
H903        H  0.08391390  0.54961502  0.57545762     0.13700
H904        H  0.07393605  0.58915146  0.51480151     0.14300
C905        C  0.11278317  0.78318253  0.97081641    -0.15300
C906        C  0.10301248  0.80506712  0.94973480    -0.30500
H907        H  0.11977101  0.75252754  0.96505703     0.13700
H908        H  0.09596390  0.83561702  0.95554519     0.14300
C909        C  0.11168603  0.78584962  0.72062023    -0.15300
C910        C  0.10396866  0.80974920  0.69871889    -0.30500
H911        H  0.11893074  0.75541450  0.71523918     0.13700
H912        H  0.09757238  0.84154278  0.70377980     0.14300
O913        O  0.58361338  0.64226094  0.09503559    -0.79800
O914        O  0.62707559  0.91122654  0.11120905    -0.64400
O915        O  0.58277195  0.74652066  0.09710349    -1.11000
C916        C  0.61228895  0.79853164  0.99877650     1.07100
O917        O  0.61076826  0.93449337  0.07079996    -0.77700
O918        O  0.56467538  0.83269880  0.04595675    -0.65200
Ni919      Ni  0.59106041  0.70118196  0.12424219     1.34900
C920        C  0.54862508  0.77770407  0.04187321     0.85900
O921        O  0.58980197  0.82044099  0.14423772    -0.78200
O922        O  0.59898799  0.75197744  0.15823185    -0.88500
C923        C  0.62457461  0.94784107  0.09583428     0.85400
O924        O  0.63344079  0.74360631  0.11418549    -0.66700
O925        O  0.60571901  0.83722520  0.00466857    -0.86000
C926        C  0.65166052  0.79821072  0.11844072     0.86300
C927        C  0.59488174  0.79373088  0.16418557     1.07800
H928        H  0.64046548  0.85495187  0.06436871     0.39600
O929        O  0.61841426  0.83748859  0.06504179    -1.08600
O930        O  0.56040511  0.74580454  0.04196895    -0.65300
Ni931      Ni  0.59860988  0.75568842  0.05731604     1.26300
O932        O  0.64248057  0.83418926  0.11837105    -0.65500
O933        O  0.61538819  0.76859670  0.01857151    -0.77800
C934        C  0.57947214  0.63485435  0.06705183     0.85700
O935        O  0.58052763  0.67352765  0.04996543    -0.65000
Ni936      Ni  0.60795206  0.88173977  0.03954498     1.27400
Ni937      Ni  0.60479219  0.82922942  0.10487629     1.26100
H938        H  0.56091314  0.73115443  0.09692649     0.40200
O939        O  0.59510515  0.65198814  0.33053870    -0.79800
O940        O  0.62793354  0.90897122  0.36671903    -0.64400
O941        O  0.58904495  0.74915814  0.34278922    -1.11000
C942        C  0.61475549  0.81801387  0.24675813     1.07100
O943        O  0.61604006  0.94273708  0.32678121    -0.77700
O944        O  0.56875388  0.84351696  0.30157978    -0.65200
Ni945      Ni  0.59947172  0.70051859  0.36474753     1.34900
C946        C  0.55336106  0.78972310  0.29451244     0.85900
O947        O  0.59249005  0.80830831  0.39454947    -0.78200
O948        O  0.60352463  0.73952995  0.40277660    -0.88500
C949        C  0.62681929  0.94898434  0.35301276     0.85400
O950        O  0.64240959  0.75089033  0.35681797    -0.66700
O951        O  0.60679121  0.85334045  0.25552840    -0.86000
C952        C  0.65827105  0.80384534  0.36552488     0.86300
C953        C  0.59698543  0.77670122  0.41204831     1.07800
H954        H  0.64553953  0.86686875  0.31511372     0.39600
O955        O  0.62339960  0.84797962  0.31563285    -1.08600
O956        O  0.56606793  0.76004283  0.29052759    -0.65300
Ni957      Ni  0.60479854  0.76896356  0.30312919     1.26300
O958        O  0.64681877  0.83590810  0.36827404    -0.65500
O959        O  0.62179452  0.79090846  0.26466583    -0.77800
C960        C  0.58815643  0.64994158  0.30305272     0.85700
O961        O  0.58673633  0.69035036  0.29050909    -0.65000
Ni962      Ni  0.61144672  0.89391333  0.29306238     1.27400
Ni963      Ni  0.60853071  0.82899449  0.35544792     1.26100
H964        H  0.56696291  0.73122641  0.34307633     0.40200
O965        O  0.71547192  0.77613328  0.17500012    -0.79800
O966        O  0.80419258  0.69474051  0.19803750    -0.64400
O967        O  0.77487893  0.79649938  0.18380685    -1.11000
C968        C  0.78394932  0.76719095  0.08350522     1.07100
O969        O  0.84197783  0.73991624  0.16440229    -0.77700
O970        O  0.84424393  0.83971965  0.14084435    -0.65200
Ni971      Ni  0.74414715  0.79582101  0.20746648     1.34900
C972        C  0.83318098  0.87211409  0.13686763     0.85900
O973        O  0.79025078  0.75743561  0.23556033    -0.78200
O974        O  0.76993979  0.81368664  0.24169362    -0.88500
C975        C  0.82887417  0.70358864  0.18604709     0.85400
O976        O  0.72270734  0.71544457  0.21781331    -0.66700
O977        O  0.80938462  0.77327045  0.09249230    -0.86000
C978        C  0.72430985  0.67176334  0.20995704     0.86300
C979        C  0.78310846  0.78799558  0.25180292     1.07800
H980        H  0.77220908  0.69346975  0.14547443     0.39600
O981        O  0.78664857  0.73417518  0.15028496    -1.08600
O982        O  0.80455505  0.85141755  0.13381969    -0.65300
Ni983      Ni  0.76774126  0.77752197  0.14244894     1.26300
O984        O  0.74741718  0.67633801  0.19637823    -0.65500
O985        O  0.76253895  0.75814566  0.10128545    -0.77800
C986        C  0.72009598  0.79502308  0.14839935     0.85700
O987        O  0.74616681  0.81673952  0.13625170    -0.65000
Ni988      Ni  0.82423689  0.75799525  0.12990363     1.27400
Ni989      Ni  0.78868609  0.74496916  0.19262250     1.26100
H990        H  0.79261750  0.83568169  0.18599675     0.40200
O991        O  0.72337132  0.79071608  0.41432839    -0.79800
O992        O  0.80778103  0.69728967  0.44987039    -0.64400
O993        O  0.77898228  0.79810955  0.42985764    -1.11000
C994        C  0.80186544  0.76797709  0.33229980     1.07100
O995        O  0.85069087  0.75467230  0.42439374    -0.77700
O996        O  0.85477550  0.84784737  0.39218015    -0.65200
Ni997      Ni  0.74577270  0.79628295  0.45005988     1.34900
C998        C  0.84306528  0.87888168  0.38729458     0.85900
O999        O  0.78952493  0.75519517  0.48389095    -0.78200
O1000       O  0.76427642  0.80226071  0.48824744    -0.88500
C1001       C  0.83508910  0.71267585  0.44276058     0.85400
O1002       O  0.72139676  0.71357209  0.45307786    -0.66700
O1003       O  0.82514645  0.77135384  0.34505516    -0.86000
C1004       C  0.72490269  0.67095491  0.44785404     0.86300
C1005       C  0.77880944  0.78022307  0.49941359     1.07800
H1006       H  0.78268547  0.69899619  0.39400315     0.39600
O1007       O  0.79611842  0.73948551  0.39987525    -1.08600
O1008       O  0.81451708  0.85689868  0.38313175    -0.65300
Ni1009     Ni  0.77771193  0.78158465  0.38778573     1.26300
O1010       O  0.75082621  0.67695469  0.44142480    -0.65500
O1011       O  0.77954212  0.76563121  0.34650305    -0.77800
C1012       C  0.73063283  0.80668907  0.38737704     0.85700
O1013       O  0.75615012  0.81885906  0.37633067    -0.65000
Ni1014     Ni  0.83648040  0.76455544  0.38555026     1.27400
Ni1015     Ni  0.79234538  0.74654211  0.44162260     1.26100
H1016       H  0.79629398  0.83720288  0.43358249     0.40200
O1017       O  0.58862190  0.51223503  0.48482353    -0.79800
O1018       O  0.64406155  0.35159959  0.46615713    -0.64400
O1019       O  0.59249462  0.41137184  0.48090424    -1.11000
C1020       C  0.61364391  0.43213922  0.08290522     1.07100
O1021       O  0.63422588  0.31710669  0.01319635    -0.77700
O1022       O  0.57981411  0.30785571  0.03090088    -0.65200
Ni1023     Ni  0.59584483  0.47045158  0.45437673     1.34900
C1024       C  0.56093196  0.32507981  0.03263621     0.85900
O1025       O  0.60489120  0.35983099  0.43357816    -0.78200
O1026       O  0.60347011  0.43773185  0.41969216    -0.88500
C1027       C  0.64723589  0.31651655  0.48212791     0.85400
O1028       O  0.63855919  0.52043030  0.46086261    -0.66700
O1029       O  0.61117372  0.38398848  0.07588201    -0.86000
C1030       C  0.65983941  0.50954693  0.45899578     0.86300
C1031       C  0.60472262  0.39276444  0.41379082     1.07800
H1032       H  0.65198776  0.44842093  0.01802154     0.39600
O1033       O  0.63043274  0.41829011  0.01642472    -1.08600
O1034       O  0.56933742  0.37910783  0.03365978    -0.65300
Ni1035     Ni  0.60618250  0.45248414  0.02296366     1.26300
O1036       O  0.65454369  0.45746880  0.46057902    -0.65500
O1037       O  0.61815026  0.47038434  0.06373083    -0.77800
C1038       C  0.58448010  0.52948898  0.01240130     0.85700
O1039       O  0.58292360  0.48927308  0.02862090    -0.65000
Ni1040     Ni  0.62219720  0.35436095  0.04229253     1.27400
Ni1041     Ni  0.61878743  0.38214945  0.47316446     1.26100
H1042       H  0.57138840  0.37890621  0.48020422     0.40200
O1043       O  0.58902244  0.51996633  0.24712679    -0.79800
O1044       O  0.63574997  0.34625583  0.21188480    -0.64400
O1045       O  0.59141636  0.41823030  0.23629715    -1.11000
C1046       C  0.62258945  0.41126518  0.33121585     1.07100
O1047       O  0.62358123  0.28826995  0.25177960    -0.77700
O1048       O  0.57532871  0.29036746  0.27864746    -0.65200
Ni1049     Ni  0.59522065  0.48198004  0.21341071     1.34900
C1050       C  0.56015175  0.31381024  0.28596278     0.85900
O1051       O  0.59775901  0.36932486  0.18383249    -0.78200
O1052       O  0.60136687  0.45441689  0.17586022    -0.88500
C1053       C  0.63513402  0.30445647  0.22583317     0.85400
O1054       O  0.63794356  0.52517907  0.22033047    -0.66700
O1055       O  0.61493590  0.35994355  0.32276681    -0.86000
C1056       C  0.65768917  0.51143371  0.21435901     0.86300
C1057       C  0.59928646  0.40777725  0.16653730     1.07800
H1058       H  0.65123535  0.42232536  0.26294317     0.39600
O1059       O  0.62914356  0.39593383  0.26266709    -1.08600
O1060       O  0.57286884  0.36867086  0.28994734    -0.65300
Ni1061     Ni  0.61005027  0.43633822  0.27525242     1.26300
O1062       O  0.65055573  0.45816644  0.21132861    -0.65500
O1063       O  0.62899376  0.45194250  0.31305874    -0.77800
C1064       C  0.58767825  0.51446608  0.27536186     0.85700
O1065       O  0.59190998  0.47804915  0.28858995    -0.65000
Ni1066     Ni  0.61876441  0.32754236  0.28554107     1.27400
Ni1067     Ni  0.61386993  0.38317493  0.22304645     1.26100
H1068       H  0.56981234  0.38821947  0.23726175     0.40200
O1069       O  0.80144191  0.21991283  0.17367302    -0.79800
O1070       O  0.69522350  0.25680139  0.18850607    -0.64400
O1071       O  0.73891650  0.17950614  0.17993847    -1.11000
C1072       C  0.73447563  0.20242987  0.07826370     1.07100
O1073       O  0.66564765  0.22033176  0.14787632    -0.77700
O1074       O  0.67032580  0.12604902  0.13010871    -0.65200
Ni1075     Ni  0.77236012  0.19769914  0.20555539     1.34900
C1076       C  0.68302272  0.09610169  0.12885531     0.85900
O1077       O  0.71308805  0.20620979  0.22745508    -0.78200
O1078       O  0.74613979  0.17774454  0.23920571    -0.88500
C1079       C  0.67255569  0.24778099  0.17269695     0.85400
O1080       O  0.78758472  0.27860359  0.21236481    -0.66700
O1081       O  0.70775840  0.19226916  0.08461807    -0.86000
C1082       C  0.77923655  0.31309756  0.20370733     0.86300
C1083       C  0.72575536  0.18940110  0.24606528     1.07800
H1084       H  0.73737319  0.27383610  0.13915465     0.39600
O1085       O  0.72384289  0.23248218  0.14305051    -1.08600
O1086       O  0.71214661  0.11883902  0.12947816    -0.65300
Ni1087     Ni  0.74720105  0.19600521  0.13877254     1.26300
O1088       O  0.75379358  0.29572304  0.19081282    -0.65500
O1089       O  0.75481810  0.21395697  0.09774361    -0.77800
C1090       C  0.79857775  0.19212104  0.14974917     0.85700
O1091       O  0.77284883  0.16351554  0.13645171    -0.65000
Ni1092     Ni  0.68857932  0.20571182  0.11821038     1.27400
Ni1093     Ni  0.71766290  0.21917877  0.18508658     1.26100
H1094       H  0.72409035  0.13816407  0.18246076     0.40200
O1095       O  0.80517972  0.22101733  0.42593833    -0.79800
O1096       O  0.70311176  0.26654463  0.43979657    -0.64400
O1097       O  0.74318636  0.18338280  0.43217292    -1.11000
C1098       C  0.73264408  0.19733468  0.33053186     1.07100
O1099       O  0.66807996  0.21777144  0.40454294    -0.77700
O1100       O  0.67311487  0.12463587  0.38715295    -0.65200
Ni1101     Ni  0.77630948  0.20101615  0.45805078     1.34900
C1102       C  0.68593461  0.09502825  0.38518630     0.85900
O1103       O  0.71955011  0.21658074  0.47904153    -0.78200
O1104       O  0.74978111  0.18251023  0.49179007    -0.88500
C1105       C  0.67783778  0.25117367  0.42737400     0.85400
O1106       O  0.79239413  0.28265781  0.46447719    -0.66700
O1107       O  0.70633540  0.18741700  0.33844441    -0.86000
C1108       C  0.78521078  0.31776282  0.45399203     0.86300
C1109       C  0.73005511  0.19644658  0.49796641     1.07800
H1110       H  0.73983857  0.27409641  0.38929029     0.39600
O1111       O  0.72681457  0.23333255  0.39470818    -1.08600
O1112       O  0.71501318  0.11823966  0.38355999    -0.65300
Ni1113     Ni  0.74994058  0.19653824  0.39045560     1.26300
O1114       O  0.76045045  0.30081003  0.43993981    -0.65500
O1115       O  0.75436305  0.20962376  0.34871253    -0.77800
C1116       C  0.80227576  0.19406443  0.40157690     0.85700
O1117       O  0.77648985  0.16563736  0.38812266    -0.65000
Ni1118     Ni  0.68924818  0.20244253  0.37315570     1.27400
Ni1119     Ni  0.72325359  0.22544662  0.43677393     1.26100
H1120       H  0.72788415  0.14258109  0.43557010     0.40200
O1121       O  0.92512285  0.31463370  0.08242379    -0.79800
O1122       O  0.88520168  0.05679738  0.11692974    -0.64400
O1123       O  0.93236318  0.21961080  0.09710207    -1.11000
C1124       C  0.91492305  0.15178339  0.99811670     1.07100
O1125       O  0.91287736  0.03839201  0.08556661    -0.77700
O1126       O  0.95931669  0.13241172  0.05560414    -0.65200
Ni1127     Ni  0.92808246  0.27724988  0.11776345     1.34900
C1128       C  0.97441208  0.18716789  0.05069208     0.85900
O1129       O  0.91507795  0.15348503  0.15120847    -0.78200
O1130       O  0.93104047  0.24854816  0.15592110    -0.88500
C1131       C  0.89316289  0.02251088  0.10652829     0.85400
O1132       O  0.88458214  0.23174136  0.11960998    -0.66700
O1133       O  0.91874942  0.11216508  0.00919979    -0.86000
C1134       C  0.86388881  0.17764855  0.11772382     0.86300
C1135       C  0.92408422  0.19951286  0.16695390     1.07800
H1136       H  0.87997607  0.10678306  0.06219677     0.39600
O1137       O  0.90164040  0.12514413  0.06668435    -1.08600
O1138       O  0.96134806  0.21581287  0.04751967    -0.65300
Ni1139     Ni  0.92204650  0.20500007  0.05537295     1.26300
O1140       O  0.86974624  0.13770960  0.11229430    -0.65500
O1141       O  0.91156898  0.18724461  0.01417263    -0.77800
C1142       C  0.93577730  0.32060456  0.05620492     0.85700
O1143       O  0.94193072  0.28499324  0.04497352    -0.65000
Ni1144     Ni  0.91596206  0.07895210  0.04861441     1.27400
Ni1145     Ni  0.90808908  0.13889045  0.10872433     1.26100
H1146       H  0.95364483  0.23150613  0.09970635     0.40200
O1147       O  0.92743140  0.31750033  0.33136969    -0.79800
O1148       O  0.89158550  0.06409557  0.36796579    -0.64400
O1149       O  0.93758607  0.22685988  0.34740933    -1.11000
C1150       C  0.92165819  0.15111855  0.24887524     1.07100
O1151       O  0.92382458  0.05242878  0.34023450    -0.77700
O1152       O  0.96753155  0.14031223  0.30532837    -0.65200
Ni1153     Ni  0.93253165  0.28394045  0.36738167     1.34900
C1154       C  0.98286525  0.19552697  0.30179712     0.85900
O1155       O  0.91875171  0.16160540  0.40181327    -0.78200
O1156       O  0.93746279  0.25799697  0.40586531    -0.88500
C1157       C  0.90201666  0.03263934  0.35918631     0.85400
O1158       O  0.88908140  0.23653539  0.37104925    -0.66700
O1159       O  0.92383269  0.11052196  0.26117111    -0.86000
C1160       C  0.86850051  0.18259371  0.36786153     0.86300
C1161       C  0.92896035  0.20828826  0.41728681     1.07800
H1162       H  0.88800646  0.11324658  0.31203255     0.39600
O1163       O  0.90951232  0.13211838  0.31732581    -1.08600
O1164       O  0.97016335  0.22532829  0.30003011    -0.65300
Ni1165     Ni  0.92948991  0.21163804  0.30525690     1.26300
O1166       O  0.87470970  0.14360870  0.36086044    -0.65500
O1167       O  0.92126439  0.19167344  0.26360516    -0.77800
C1168       C  0.93868482  0.32496823  0.30525040     0.85700
O1169       O  0.94727557  0.29208300  0.29453679    -0.65000
Ni1170     Ni  0.92400933  0.08475436  0.30151707     1.27400
Ni1171     Ni  0.91371872  0.14635481  0.35938416     1.26100
H1172       H  0.95881363  0.23925778  0.35096569     0.40200
O1173       O  0.93038636  0.44747427  0.49983447    -0.79800
O1174       O  0.87991961  0.61523458  0.46512608    -0.64400
O1175       O  0.92621339  0.54556160  0.48647255    -1.11000
C1176       C  0.90534152  0.57874970  0.08442701     1.07100
O1177       O  0.91054189  0.68540675  0.99322649    -0.77700
O1178       O  0.95348498  0.68331870  0.02905400    -0.65200
Ni1179     Ni  0.91923985  0.47659953  0.46606617     1.34900
C1180       C  0.96793476  0.65755266  0.03398085     0.85900
O1181       O  0.91012507  0.57883707  0.43206699    -0.78200
O1182       O  0.90799921  0.49438910  0.42815992    -0.88500
C1183       C  0.88996381  0.66748406  0.47373375     0.85400
O1184       O  0.87812451  0.43604075  0.47921892    -0.66700
O1185       O  0.90926443  0.62527579  0.07229086    -0.86000
C1186       C  0.85812192  0.45018593  0.47716603     0.86300
C1187       C  0.90815107  0.53750095  0.41645664     1.07800
H1188       H  0.87397408  0.55186916  0.02008560     0.39600
O1189       O  0.89570012  0.57596629  0.01569640    -1.08600
O1190       O  0.95472759  0.60250017  0.03595678    -0.65300
Ni1191     Ni  0.91466428  0.53576705  0.02857093     1.26300
O1192       O  0.86432815  0.50217591  0.47146704    -0.65500
O1193       O  0.90381046  0.53661629  0.06952352    -0.77800
C1194       C  0.93196189  0.45032389  0.02904589     0.85700
O1195       O  0.93224043  0.49280923  0.04137690    -0.65000
Ni1196     Ni  0.91004230  0.65221347  0.03193977     1.27400
Ni1197     Ni  0.90260473  0.57894036  0.47411727     1.26100
H1198       H  0.94775437  0.57517257  0.48412387     0.40200
O1199       O  0.92409815  0.43931086  0.25054661    -0.79800
O1200       O  0.87383118  0.60736943  0.21447818    -0.64400
O1201       O  0.92173721  0.53988515  0.23580238    -1.11000
C1202       C  0.90469278  0.58092666  0.33429879     1.07100
O1203       O  0.90233440  0.68407564  0.24392075    -0.77700
O1204       O  0.94850127  0.68404608  0.27584006    -0.65200
Ni1205     Ni  0.91444440  0.46976945  0.21622379     1.34900
C1206       C  0.96391546  0.66000975  0.28053310     0.85900
O1207       O  0.90426767  0.57093379  0.18172681    -0.78200
O1208       O  0.90494501  0.48899710  0.17792909    -0.88500
C1209       C  0.88269170  0.65930837  0.22285372     0.85400
O1210       O  0.87281208  0.42916063  0.22804115    -0.66700
O1211       O  0.90780086  0.62668392  0.32200344    -0.86000
C1212       C  0.85287826  0.44356952  0.22663853     0.86300
C1213       C  0.90413978  0.53114748  0.16625734     1.07800
H1214       H  0.86987781  0.55062068  0.27010064     0.39600
O1215       O  0.89150037  0.57552365  0.26545834    -1.08600
O1216       O  0.95160865  0.60533673  0.28402759    -0.65300
Ni1217     Ni  0.91177576  0.53674593  0.27794703     1.26300
O1218       O  0.85915159  0.49572566  0.22169686    -0.65500
O1219       O  0.90212170  0.53800634  0.31931478    -0.77800
C1220       C  0.93066853  0.45229730  0.27789297     0.85700
O1221       O  0.93039335  0.49443178  0.29031003    -0.65000
Ni1222     Ni  0.90523024  0.65152230  0.28189731     1.27400
Ni1223     Ni  0.89737258  0.57225286  0.22373243     1.26100
H1224       H  0.94311979  0.56950445  0.23251629     0.40200
C1225       C  0.90590085  0.53775107  0.38325975    -0.15300
C1226       C  0.90493148  0.57958228  0.36761122    -0.30500
H1227       H  0.90545536  0.50212410  0.37122589     0.13700
H1228       H  0.90563644  0.61554572  0.37954349     0.14300
C1229       C  0.90334948  0.57540460  0.11755310    -0.15300
C1230       C  0.90327675  0.53253728  0.13312904    -0.30500
H1231       H  0.90349187  0.61083779  0.12947008     0.18500
H1232       H  0.90355914  0.49759611  0.12113233     0.14300
C1233       C  0.93692793  0.41450530  0.29686907    -0.15300
C1234       C  0.93961331  0.37057648  0.28585603    -0.30500
H1235       H  0.93693737  0.42017167  0.32088453     0.13700
H1236       H  0.94080114  0.36594826  0.26189313     0.14300
C1237       C  0.93878789  0.36754742  0.03707667    -0.15300
C1238       C  0.93713795  0.41211875  0.04821262    -0.30500
H1239       H  0.94019991  0.36303704  0.01312024     0.13700
H1240       H  0.93683405  0.41761699  0.07222203     0.14300
C1241       C  0.92261746  0.15679159  0.46570419    -0.15300
C1242       C  0.93040086  0.20585738  0.45039347    -0.30500
H1243       H  0.91654008  0.11697132  0.45360747     0.13700
H1244       H  0.93763124  0.24605867  0.46268776     0.14300
C1245       C  0.91964951  0.15021219  0.21573057    -0.15300
C1246       C  0.92619784  0.19796211  0.19997702    -0.30500
H1247       H  0.91368361  0.11003555  0.20406040     0.13700
H1248       H  0.93308516  0.23836030  0.21193415     0.14300
C1249       C  0.83609557  0.16563466  0.37430186    -0.15300
C1250       C  0.83118849  0.20490343  0.38809031    -0.30500
H1251       H  0.81717853  0.12094509  0.37055132     0.13700
H1252       H  0.85088624  0.24805452  0.39337232     0.14300
C1253       C  0.80743660  0.38112823  0.45720078    -0.15300
C1254       C  0.82645398  0.40134280  0.48066328    -0.30500
H1255       H  0.81133395  0.40933819  0.43824312     0.13700
H1256       H  0.82240552  0.37146224  0.49888730     0.14300
C1257       C  0.82721132  0.20229501  0.13637644    -0.15300
C1258       C  0.83173463  0.16162710  0.12391130    -0.30500
H1259       H  0.84694581  0.24590204  0.14077832     0.13700
H1260       H  0.81271556  0.11664500  0.12126054     0.14300
C1261       C  0.80112785  0.37646273  0.20774717    -0.15300
C1262       C  0.82114718  0.39500528  0.23044448    -0.30500
H1263       H  0.80436014  0.40577731  0.18953555     0.13700
H1264       H  0.81758475  0.36393292  0.24786786     0.14300
C1265       C  0.71768839  0.18620849  0.27763243    -0.15300
C1266       C  0.73808730  0.19352166  0.29880421    -0.30500
H1267       H  0.69636999  0.18356538  0.28349602     0.13700
H1268       H  0.76009430  0.19934585  0.29261464     0.14300
C1269       C  0.74203800  0.19989091  0.04694958    -0.15300
C1270       C  0.72173593  0.18923079  0.02529611    -0.30500
H1271       H  0.76496322  0.20950880  0.04147050     0.13700
H1272       H  0.69939694  0.18266586  0.03068930     0.14300
C1273       C  0.52665330  0.27897623  0.29049262    -0.15300
C1274       C  0.01701990  0.22678976  0.29910297    -0.30500
H1275       H  0.51524058  0.30351213  0.28969100     0.13700
H1276       H  0.02804862  0.20157700  0.29892241     0.14300
C1277       C  0.65369332  0.27097064  0.18350960    -0.15300
C1278       C  0.64961508  0.27425585  0.21285748    -0.30500
H1279       H  0.64361640  0.28628926  0.16743439     0.13700
H1280       H  0.65786762  0.25458388  0.22843509     0.14300
C1281       C  0.62116851  0.42301917  0.36278280    -0.15300
C1282       C  0.60755288  0.37972570  0.38276435    -0.30500
H1283       H  0.62965139  0.46802268  0.36943735     0.13700
H1284       H  0.59966470  0.33477898  0.37658033     0.14300
C1285       C  0.60033899  0.39872685  0.13444745    -0.15300
C1286       C  0.61002539  0.44229182  0.11447388    -0.30500
H1287       H  0.59502403  0.35562004  0.12734151     0.13700
H1288       H  0.61553435  0.48559748  0.12139732     0.14300
C1289       C  0.52759268  0.28285475  0.03399353    -0.15300
C1290       C  0.00850422  0.22042234  0.04806760    -0.30500
H1291       H  0.51360796  0.30063696  0.02765187     0.13700
H1292       H  0.02084673  0.19785158  0.05021936     0.14300
C1293       C  0.66227032  0.28789182  0.46921129    -0.15300
C1294       C  0.65936507  0.27305577  0.44020947    -0.30500
H1295       H  0.67602476  0.27856766  0.48397109     0.13700
H1296       H  0.64370636  0.27787604  0.42587842     0.14300
C1297       C  0.86227915  0.94359336  0.38544517    -0.15300
C1298       C  0.88884095  0.97179691  0.37022917    -0.30500
H1299       H  0.85125433  0.96741925  0.39155031     0.13700
H1300       H  0.89886823  0.94729123  0.36216601     0.14300
C1301       C  0.84835437  0.68061470  0.45653277    -0.15300
C1302       C  0.87870535  0.70216701  0.45913769    -0.30500
H1303       H  0.83225928  0.63767575  0.46581116     0.13700
H1304       H  0.89526424  0.74691772  0.45247159     0.14300
C1305       C  0.69586968  0.61341442  0.44889728    -0.15300
C1306       C  0.69184484  0.56053181  0.45455952    -0.30500
H1307       H  0.67558251  0.61653520  0.44697388     0.13700
H1308       H  0.71143888  0.55538785  0.45674929     0.14300
C1309       C  0.85325733  0.93645988  0.13429330    -0.15300
C1310       C  0.87934385  0.96214608  0.11830950    -0.30500
H1311       H  0.84320809  0.96200404  0.14046148     0.13700
H1312       H  0.88815792  0.93569739  0.11003787     0.14300
C1313       C  0.84205037  0.66935972  0.19784728    -0.15300
C1314       C  0.87140544  0.69373013  0.20726562    -0.30500
H1315       H  0.82601922  0.62299680  0.20191665     0.13700
H1316       H  0.88664800  0.74104350  0.20626987     0.14300
C1317       C  0.69676049  0.61505147  0.21747572    -0.15300
C1318       C  0.68984182  0.56098722  0.20961251    -0.30500
H1319       H  0.67962939  0.61941975  0.22958923     0.13700
H1320       H  0.70646563  0.55419858  0.19823262     0.14300
C1321       C  0.78820089  0.79226875  0.28441162    -0.15300
C1322       C  0.80100960  0.76709067  0.29929055    -0.30500
H1323       H  0.77937166  0.81493116  0.29705784     0.13700
H1324       H  0.81137718  0.74665155  0.28722285     0.14300
C1325       C  0.77875012  0.77281310  0.05137525    -0.15300
C1326       C  0.79869243  0.78047108  0.02972101    -0.30500
H1327       H  0.75731512  0.76954100  0.04528455     0.13700
H1328       H  0.81938035  0.78062069  0.03543823     0.14300
C1329       C  0.99772107  0.69506492  0.28254595    -0.15300
C1330       C  0.51967782  0.76086890  0.29005284    -0.30500
H1331       H  0.00951934  0.67140140  0.28032539     0.13700
H1332       H  0.50836561  0.78411846  0.29620265     0.14300
C1333       C  0.63987539  0.00677591  0.36698156    -0.15300
C1334       C  0.66651493  0.03107438  0.38209174    -0.30500
H1335       H  0.63125557  0.03401401  0.35955625     0.13700
H1336       H  0.67685280  0.00540365  0.38666250     0.14300
C1337       C  0.68972043  0.82635347  0.37693949    -0.15300
C1338       C  0.70695880  0.80500896  0.36779524    -0.30500
H1339       H  0.69705040  0.85525286  0.39625027     0.13700
H1340       H  0.70078303  0.77862990  0.34761514     0.14300
C1341       C  0.58323698  0.55429613  0.29456096    -0.15300
C1342       C  0.58347962  0.60102001  0.28381765    -0.30500
H1343       H  0.58357013  0.54899959  0.31855981     0.13700
H1344       H  0.58309022  0.60641886  0.25983607     0.14300
C1345       C  0.51500172  0.75000918  0.03660915    -0.15300
C1346       C  0.00158751  0.69074962  0.03781084    -0.30500
H1347       H  0.50459964  0.77604920  0.03943107     0.13700
H1348       H  0.01261937  0.66554162  0.03656387     0.14300
C1349       C  0.66367518  0.03234578  0.12459760    -0.15300
C1350       C  0.63873991  0.00845611  0.10680024    -0.30500
H1351       H  0.67279289  0.00594716  0.13203592     0.13700
H1352       H  0.63142184  0.03606985  0.09691480     0.14300
C1353       C  0.68396612  0.81966031  0.12672402    -0.15300
C1354       C  0.69323273  0.78167372  0.13039234    -0.30500
H1355       H  0.69884093  0.86503250  0.13368386     0.13700
H1356       H  0.67785114  0.73576826  0.12467444     0.14300
C1357       C  0.57545177  0.57996418  0.05431748    -0.15300
C1358       C  0.57785070  0.57304703  0.02489989    -0.30500
H1359       H  0.57506241  0.54852558  0.06979408     0.13700
H1360       H  0.57926176  0.60564919  0.00957286     0.14300
C1361       C  0.60648806  0.76573807  0.46515552    -0.15300
C1362       C  0.59575544  0.78626616  0.44424429    -0.30500
H1363       H  0.61568227  0.73887650  0.45874021     0.13700
H1364       H  0.58694743  0.81371063  0.45080320     0.14300
C1365       C  0.61361275  0.80345957  0.21512022    -0.15300
C1366       C  0.59772323  0.81401880  0.19510254    -0.30500
H1367       H  0.62414217  0.77893902  0.20856177     0.13700
H1368       H  0.58738574  0.83903438  0.20128171     0.14300
O1369       O  0.59572859  0.63427144  0.59381022    -0.79800
O1370       O  0.62397053  0.89408597  0.61091202    -0.64400
O1371       O  0.58783364  0.73026868  0.59746097    -1.11000
C1372       C  0.60603348  0.77876070  0.49712144     1.07100
O1373       O  0.60520300  0.91370511  0.57103601    -0.77700
O1374       O  0.55863204  0.80317988  0.55030513    -0.65200
Ni1375     Ni  0.60163222  0.69156389  0.62312642     1.34900
C1376       C  0.54551656  0.74787079  0.54711903     0.85900
O1377       O  0.59253019  0.80116731  0.64504712    -0.78200
O1378       O  0.60791573  0.74050446  0.65728856    -0.88500
C1379       C  0.62003813  0.92913071  0.59564588     0.85400
O1380       O  0.64313580  0.74205212  0.61074552    -0.66700
O1381       O  0.59684828  0.81293114  0.50470695    -0.86000
C1382       C  0.65830053  0.79692279  0.61557289     0.86300
C1383       C  0.60025187  0.77699827  0.66424687     1.07800
H1384       H  0.63924222  0.84351611  0.56193231     0.39600
O1385       O  0.61709539  0.82187188  0.56392842    -1.08600
O1386       O  0.56037546  0.72203255  0.54520808    -0.65300
Ni1387     Ni  0.60093274  0.74060442  0.55653958     1.26300
O1388       O  0.64568185  0.82706863  0.61653436    -0.65500
O1389       O  0.61394607  0.75403343  0.51601888    -0.77800
C1390       C  0.58802246  0.62336280  0.56658708     0.85700
O1391       O  0.58581882  0.65903285  0.54976239    -0.65000
Ni1392     Ni  0.60075506  0.85865393  0.53986025     1.27400
Ni1393     Ni  0.60554398  0.81230467  0.60478111     1.26100
H1394       H  0.56569189  0.71032779  0.59893621     0.40200
O1395       O  0.60603730  0.65273617  0.84323009    -0.79800
O1396       O  0.63318674  0.91129773  0.86188497    -0.64400
O1397       O  0.59693535  0.74742915  0.84795058    -1.11000
C1398       C  0.61580422  0.79381637  0.74778666     1.07100
O1399       O  0.61971412  0.93477113  0.81953388    -0.77700
O1400       O  0.57295020  0.83029053  0.79987161    -0.65200
Ni1401     Ni  0.61043156  0.70785337  0.87333345     1.34900
C1402       C  0.55699988  0.77512612  0.79681039     0.85900
O1403       O  0.60084759  0.81741035  0.89474559    -0.78200
O1404       O  0.61486760  0.75487273  0.90795539    -0.88500
C1405       C  0.62984350  0.94652326  0.84605092     0.85400
O1406       O  0.65265061  0.75876061  0.86278877    -0.66700
O1407       O  0.60942914  0.83216851  0.75472391    -0.86000
C1408       C  0.66775789  0.81313347  0.86876507     0.86300
C1409       C  0.60686115  0.79123843  0.91432022     1.07800
H1410       H  0.65026376  0.85748421  0.81327017     0.39600
O1411       O  0.62816387  0.83867171  0.81458872    -1.08600
O1412       O  0.56899601  0.74354674  0.79580681    -0.65300
Ni1413     Ni  0.60908015  0.75621618  0.80716472     1.26300
O1414       O  0.65516935  0.84350085  0.86890509    -0.65500
O1415       O  0.62211722  0.76729876  0.76693492    -0.77800
C1416       C  0.59594147  0.63998655  0.81668833     0.85700
O1417       O  0.59130345  0.67374495  0.80079652    -0.65000
Ni1418     Ni  0.61499270  0.87948769  0.78934456     1.27400
Ni1419     Ni  0.61539079  0.82949568  0.85522145     1.26100
H1420       H  0.57483593  0.72815109  0.84961462     0.40200
O1421       O  0.72171020  0.78306863  0.66173653    -0.79800
O1422       O  0.81301814  0.70295541  0.69716825    -0.64400
O1423       O  0.77790164  0.79433926  0.67896623    -1.11000
C1424       C  0.80166887  0.76857848  0.57988919     1.07100
O1425       O  0.85424409  0.76449492  0.67066989    -0.77700
O1426       O  0.85593000  0.85012135  0.63639418    -0.65200
Ni1427     Ni  0.74136290  0.78148003  0.69798563     1.34900
C1428       C  0.84369255  0.88070898  0.63479710     0.85900
O1429       O  0.79119599  0.75353309  0.73205300    -0.78200
O1430       O  0.75639505  0.77957155  0.73693305    -0.88500
C1431       C  0.84089824  0.72378612  0.68993033     0.85400
O1432       O  0.71979533  0.69874383  0.69436161    -0.66700
O1433       O  0.82457177  0.76916417  0.59176052    -0.86000
C1434       C  0.72727594  0.66097197  0.69078607     0.86300
C1435       C  0.77504895  0.76683812  0.74789838     1.07800
H1436       H  0.78464582  0.70120623  0.64156309     0.39600
O1437       O  0.79791586  0.74159375  0.64766991    -1.08600
O1438       O  0.81486719  0.85866676  0.63379936    -0.65300
Ni1439     Ni  0.77847558  0.78225912  0.63656961     1.26300
O1440       O  0.75498875  0.67336085  0.68902831    -0.65500
O1441       O  0.78077186  0.76967345  0.59490671    -0.77800
C1442       C  0.73063860  0.80407882  0.63578998     0.85700
O1443       O  0.75695728  0.81950190  0.62590183    -0.65000
Ni1444     Ni  0.83786855  0.76712828  0.63202066     1.27400
Ni1445     Ni  0.79438779  0.74703497  0.68965203     1.26100
H1446       H  0.79359458  0.83433873  0.68373649     0.40200
O1447       O  0.73712454  0.81207693  0.91680345    -0.79800
O1448       O  0.81065043  0.69060359  0.94421539    -0.64400
O1449       O  0.78939719  0.80415685  0.92822137    -1.11000
C1450       C  0.79845266  0.75600444  0.82833842     1.07100
O1451       O  0.85187686  0.74064698  0.91580761    -0.77700
O1452       O  0.85938178  0.83069283  0.87985455    -0.65200
Ni1453     Ni  0.75867206  0.80746684  0.95129873     1.34900
C1454       C  0.85171953  0.86841035  0.87699778     0.85900
O1455       O  0.80219921  0.75909537  0.97980207    -0.78200
O1456       O  0.77591397  0.80265713  0.98910578    -0.88500
C1457       C  0.83682514  0.70196698  0.93571441     0.85400
O1458       O  0.73019051  0.72569990  0.95113975    -0.66700
O1459       O  0.81982798  0.75001407  0.83901440    -0.86000
C1460       C  0.73156550  0.68053460  0.94666484     0.86300
C1461       C  0.79178434  0.78116012  0.99761315     1.07800
H1462       H  0.78169076  0.69566330  0.89134969     0.39600
O1463       O  0.79800918  0.73524893  0.89604730    -1.08600
O1464       O  0.82387828  0.85518217  0.87839674    -0.65300
Ni1465     Ni  0.78413951  0.78577351  0.88597506     1.26300
O1466       O  0.75653566  0.68206485  0.94125969    -0.65500
O1467       O  0.78091606  0.76596975  0.84433608    -0.77800
C1468       C  0.74289007  0.82474513  0.88925401     0.85700
O1469       O  0.76693079  0.83194248  0.87686828    -0.65000
Ni1470     Ni  0.83465127  0.74656196  0.87814205     1.27400
Ni1471     Ni  0.79931130  0.74639479  0.93780339     1.26100
H1472       H  0.80806151  0.84192715  0.93096718     0.40200
O1473       O  0.59331594  0.53670928  0.98542536    -0.79800
O1474       O  0.64196809  0.36289190  0.96972803    -0.64400
O1475       O  0.59440777  0.43271084  0.98201277    -1.11000
C1476       C  0.61648739  0.41494340  0.58038303     1.07100
O1477       O  0.63864363  0.30572433  0.50911572    -0.77700
O1478       O  0.58369260  0.29070163  0.52758170    -0.65200
Ni1479     Ni  0.60023277  0.49343954  0.95537405     1.34900
C1480       C  0.56335630  0.30344272  0.53211546     0.85900
O1481       O  0.60577409  0.37812635  0.93536427    -0.78200
O1482       O  0.60710611  0.45870264  0.92100616    -0.88500
C1483       C  0.64365277  0.32673497  0.98640111     0.85400
O1484       O  0.64303687  0.53942630  0.96281124    -0.66700
O1485       O  0.61410480  0.36692104  0.57325502    -0.86000
C1486       C  0.66297550  0.52489127  0.96128169     0.86300
C1487       C  0.60652981  0.41175529  0.91532487     1.07800
H1488       H  0.65274960  0.43410937  0.51479900     0.39600
O1489       O  0.63146181  0.40247604  0.51365520    -1.08600
O1490       O  0.56996240  0.35670191  0.53380317    -0.65300
Ni1491     Ni  0.60557425  0.43241081  0.52142526     1.26300
O1492       O  0.65595909  0.47175370  0.96338982    -0.65500
O1493       O  0.61948271  0.45217884  0.56132416    -0.77800
C1494       C  0.58216132  0.50684178  0.51238695     0.85700
O1495       O  0.58154669  0.46718657  0.52839813    -0.65000
Ni1496     Ni  0.62575705  0.33989374  0.53898043     1.27400
Ni1497     Ni  0.61870179  0.39870327  0.97547809     1.26100
H1498       H  0.57296970  0.40188258  0.98063215     0.40200
O1499       O  0.59615573  0.52702012  0.73456228    -0.79800
O1500       O  0.64037128  0.34409966  0.71822373    -0.64400
O1501       O  0.59550742  0.42050322  0.73158605    -1.11000
C1502       C  0.61840737  0.42136093  0.83117021     1.07100
O1503       O  0.62627635  0.29124165  0.76000381    -0.77700
O1504       O  0.57512151  0.29563514  0.78020451    -0.65200
Ni1505     Ni  0.60143160  0.48144845  0.70490130     1.34900
C1506       C  0.55920919  0.31916594  0.78397351     0.85900
O1507       O  0.60542734  0.36450489  0.68371562    -0.78200
O1508       O  0.60683657  0.44570567  0.67065281    -0.88500
C1509       C  0.63922554  0.30423321  0.73443423     0.85400
O1510       O  0.64432165  0.52499121  0.71153528    -0.66700
O1511       O  0.61156325  0.36960694  0.82460180    -0.86000
C1512       C  0.66363559  0.50884913  0.71035143     0.86300
C1513       C  0.60605240  0.39900571  0.66427283     1.07800
H1514       H  0.65199019  0.42653514  0.76650650     0.39600
O1515       O  0.62998927  0.39987453  0.76482428    -1.08600
O1516       O  0.57129934  0.37455756  0.78505597    -0.65300
Ni1517     Ni  0.60995519  0.44174155  0.77193630     1.26300
O1518       O  0.65614133  0.45538834  0.71276013    -0.65500
O1519       O  0.62473759  0.45999482  0.81162642    -0.77800
C1520       C  0.59123891  0.52469073  0.76233076     0.85700
O1521       O  0.59137772  0.48677716  0.77902516    -0.65000
Ni1522     Ni  0.61814902  0.33378991  0.79021235     1.27400
Ni1523     Ni  0.61818739  0.38279786  0.72406937     1.26100
H1524       H  0.57381499  0.39084919  0.73127520     0.40200
O1525       O  0.79920634  0.19285884  0.67141906    -0.79800
O1526       O  0.69742943  0.24388630  0.69781993    -0.64400
O1527       O  0.73756214  0.15975096  0.68317908    -1.11000
C1528       C  0.72868687  0.19134542  0.58266068     1.07100
O1529       O  0.66341764  0.20070616  0.66071344    -0.77700
O1530       O  0.66543427  0.10975889  0.63260824    -0.65200
Ni1531     Ni  0.77257678  0.17416060  0.70547420     1.34900
C1532       C  0.67745549  0.07861000  0.63120537     0.85900
O1533       O  0.71787511  0.19148688  0.73370993    -0.78200
O1534       O  0.74937257  0.15737663  0.74123070    -0.88500
C1535       C  0.67294794  0.23256814  0.68428461     0.85400
O1536       O  0.79059217  0.25615869  0.71193789    -0.66700
O1537       O  0.70331869  0.18670701  0.59002417    -0.86000
C1538       C  0.78313562  0.29326443  0.70581994     0.86300
C1539       C  0.73105860  0.17261315  0.75042678     1.07800
H1540       H  0.73549539  0.25629329  0.64533372     0.39600
O1541       O  0.72138564  0.21518590  0.64938608    -1.08600
O1542       O  0.70638071  0.09996165  0.63335710    -0.65300
Ni1543     Ni  0.74278889  0.17592541  0.64186755     1.26300
O1544       O  0.75663542  0.27853897  0.69601202    -0.65500
O1545       O  0.74807849  0.19454389  0.60120283    -0.77800
C1546       C  0.79357668  0.16802406  0.64608960     0.85700
O1547       O  0.76647969  0.14039731  0.63574020    -0.65000
Ni1548     Ni  0.68504102  0.19275769  0.62684134     1.27400
Ni1549     Ni  0.71864274  0.20331441  0.69156631     1.26100
H1550       H  0.72208027  0.11883642  0.68599501     0.40200
O1551       O  0.79847122  0.21996816  0.91368766    -0.79800
O1552       O  0.69662548  0.26647817  0.94345256    -0.64400
O1553       O  0.73727200  0.18586868  0.92588485    -1.11000
C1554       C  0.71490469  0.20465801  0.82771039     1.07100
O1555       O  0.65721852  0.20906388  0.91379522    -0.77700
O1556       O  0.66241187  0.12147834  0.88646151    -0.65200
Ni1557     Ni  0.77220140  0.20020852  0.94818555     1.34900
C1558       C  0.67703050  0.09566979  0.88196161     0.85900
O1559       O  0.71804072  0.21634263  0.97742584    -0.78200
O1560       O  0.74920790  0.18197175  0.98466993    -0.88500
C1561       C  0.66966904  0.24814254  0.93410930     0.85400
O1562       O  0.78914335  0.28140680  0.95544305    -0.66700
O1563       O  0.68975643  0.19467080  0.83900056    -0.86000
C1564       C  0.78125853  0.31765832  0.94884003     0.86300
C1565       C  0.73020612  0.19571866  0.99387870     1.07800
H1566       H  0.72745146  0.27600194  0.88877782     0.39600
O1567       O  0.71583698  0.23496859  0.89402563    -1.08600
O1568       O  0.70596137  0.12261087  0.87822885    -0.65300
Ni1569     Ni  0.73964178  0.20161077  0.88411959     1.26300
O1570       O  0.75516687  0.30247721  0.93775393    -0.65500
O1571       O  0.73858231  0.21559237  0.84275943    -0.77800
C1572       C  0.79326900  0.19795526  0.88758507     0.85700
O1573       O  0.76674825  0.17382791  0.87560956    -0.65000
Ni1574     Ni  0.67552908  0.20133158  0.87746788     1.27400
Ni1575     Ni  0.71735213  0.22670012  0.93572425     1.26100
H1576       H  0.72223609  0.14486778  0.92910968     0.40200
O1577       O  0.92297366  0.31500301  0.57994224    -0.79800
O1578       O  0.89436551  0.06556837  0.61841370    -0.64400
O1579       O  0.93518956  0.22767602  0.59800387    -1.11000
C1580       C  0.92337454  0.15538201  0.49888019     1.07100
O1581       O  0.92539492  0.05344448  0.58903684    -0.77700
O1582       O  0.96867819  0.14487889  0.55605801    -0.65200
Ni1583     Ni  0.92478135  0.27920149  0.61661656     1.34900
C1584       C  0.98301755  0.20016481  0.55334273     0.85900
O1585       O  0.91971958  0.16272538  0.65219219    -0.78200
O1586       O  0.92621958  0.25186966  0.65588780    -0.88500
C1587       C  0.90410878  0.03392020  0.60847200     0.85400
O1588       O  0.88134441  0.22675042  0.61532020    -0.66700
O1589       O  0.92605999  0.11520398  0.51088678    -0.86000
C1590       C  0.86383193  0.17122812  0.61569329     0.86300
C1591       C  0.92335903  0.20608591  0.66754352     1.07800
H1592       H  0.88801294  0.11240733  0.56254296     0.39600
O1593       O  0.90961572  0.13251678  0.56762445    -1.08600
O1594       O  0.96936403  0.22816630  0.55173273    -0.65300
Ni1595     Ni  0.92829284  0.21206704  0.55577876     1.26300
O1596       O  0.87369499  0.13659967  0.61263398    -0.65500
O1597       O  0.92135349  0.19361503  0.51396869    -0.77800
C1598       C  0.93662195  0.32433406  0.55496368     0.85700
O1599       O  0.94573912  0.29191251  0.54512681    -0.65000
Ni1600     Ni  0.92562570  0.08774473  0.55100339     1.27400
Ni1601     Ni  0.91426710  0.14704524  0.60980377     1.26100
H1602       H  0.95678438  0.24428001  0.60217326     0.40200
O1603       O  0.92840472  0.33007732  0.83155679    -0.79800
O1604       O  0.88391816  0.07115675  0.86890273    -0.64400
O1605       O  0.93250200  0.23234220  0.84792082    -1.11000
C1606       C  0.91866283  0.15774970  0.74997086     1.07100
O1607       O  0.91065340  0.04573318  0.84061562    -0.77700
O1608       O  0.96047747  0.14209333  0.81144700    -0.65200
Ni1609     Ni  0.92578619  0.28856155  0.86756893     1.34900
C1610       C  0.97613899  0.19640563  0.80476816     0.85900
O1611       O  0.91458669  0.16655100  0.90183297    -0.78200
O1612       O  0.92353291  0.25693140  0.90687472    -0.88500
C1613       C  0.88988510  0.03338699  0.86022050     0.85400
O1614       O  0.88204488  0.24414438  0.86411914    -0.66700
O1615       O  0.92229915  0.11941504  0.76289128    -0.86000
C1616       C  0.86238634  0.18932168  0.86425481     0.86300
C1617       C  0.91921671  0.20951351  0.91785257     1.07800
H1618       H  0.88120649  0.11777814  0.81301171     0.39600
O1619       O  0.90273019  0.13614149  0.81812586    -1.08600
O1620       O  0.96354478  0.22573894  0.80013819    -0.65300
Ni1621     Ni  0.92375642  0.21558657  0.80576014     1.26300
O1622       O  0.86979108  0.15078015  0.86243186    -0.65500
O1623       O  0.91496319  0.19482649  0.76431425    -0.77800
C1624       C  0.93878778  0.33387541  0.80533066     0.85700
O1625       O  0.94329057  0.29560437  0.79423655    -0.65000
Ni1626     Ni  0.91721165  0.08777260  0.80292389     1.27400
Ni1627     Ni  0.90811822  0.15185726  0.85985980     1.26100
H1628       H  0.95378184  0.24520460  0.85156713     0.40200
O1629       O  0.92570790  0.43738005  0.00165324    -0.79800
O1630       O  0.87937062  0.60816539  0.96521388    -0.64400
O1631       O  0.92559207  0.53919308  0.98664020    -1.11000
C1632       C  0.90482139  0.58183738  0.58455825     1.07100
O1633       O  0.91043699  0.69135143  0.49413694    -0.77700
O1634       O  0.95343579  0.68708340  0.52941567    -0.65200
Ni1635     Ni  0.91904634  0.47013962  0.96660121     1.34900
C1636       C  0.96750606  0.66044709  0.53420550     0.85900
O1637       O  0.90838553  0.57046995  0.93217347    -0.78200
O1638       O  0.91273334  0.49261767  0.92779936    -0.88500
C1639       C  0.89003218  0.66096271  0.97294194     0.85400
O1640       O  0.87640317  0.42851063  0.97489359    -0.66700
O1641       O  0.90888155  0.62873418  0.57274611    -0.86000
C1642       C  0.85663375  0.44345343  0.97421529     0.86300
C1643       C  0.91010328  0.53294858  0.91644959     1.07800
H1644       H  0.87395194  0.55734835  0.51958705     0.39600
O1645       O  0.89576882  0.58130488  0.51559839    -1.08600
O1646       O  0.95397837  0.60545354  0.53651034    -0.65300
Ni1647     Ni  0.91412016  0.53974601  0.52832088     1.26300
O1648       O  0.86328073  0.49638107  0.97179262    -0.65500
O1649       O  0.90297860  0.53971912  0.56932402    -0.77800
C1650       C  0.93364969  0.45612524  0.52782271     0.85700
O1651       O  0.93054938  0.49432169  0.54103357    -0.65000
Ni1652     Ni  0.91000312  0.65694947  0.53255203     1.27400
Ni1653     Ni  0.90184635  0.57214630  0.97420816     1.26100
H1654       H  0.94704774  0.56895245  0.98390612     0.40200
O1655       O  0.93201632  0.45426659  0.75039802    -0.79800
O1656       O  0.86101228  0.57605982  0.71743181    -0.64400
O1657       O  0.92535354  0.54951198  0.73612813    -1.11000
C1658       C  0.90224366  0.57281491  0.83521155     1.07100
O1659       O  0.88432092  0.65658435  0.74555831    -0.77700
O1660       O  0.93556605  0.68302472  0.77792881    -0.65200
Ni1661     Ni  0.93064600  0.49354249  0.71512123     1.34900
C1662       C  0.95644135  0.67191334  0.78271222     0.85900
O1663       O  0.89830594  0.55977836  0.68217825    -0.78200
O1664       O  0.92978729  0.52576979  0.67718671    -0.88500
C1665       C  0.86476300  0.62477584  0.72548867     0.85400
O1666       O  0.88824116  0.43528246  0.71216174    -0.66700
O1667       O  0.89848412  0.61203504  0.82348056    -0.86000
C1668       C  0.86316762  0.43247234  0.71763212     0.86300
C1669       C  0.91427708  0.54597671  0.66623640     1.07800
H1670       H  0.86709906  0.53011452  0.77244979     0.39600
O1671       O  0.88739132  0.56210469  0.76706383    -1.08600
O1672       O  0.95064117  0.61980644  0.78487296    -0.65300
Ni1673     Ni  0.91615559  0.54162913  0.77826717     1.26300
O1674       O  0.86140288  0.47705418  0.72405916    -0.65500
O1675       O  0.90609304  0.53697406  0.81983763    -0.77800
C1676       C  0.94056618  0.46987700  0.77720090     0.85700
O1677       O  0.94338167  0.51590644  0.78825867    -0.65000
Ni1678     Ni  0.89196714  0.63191351  0.78359686     1.27400
Ni1679     Ni  0.89260834  0.56052344  0.72495770     1.26100
H1680       H  0.94424213  0.58665982  0.73293770     0.40200
C1681       C  0.90897772  0.53479514  0.88335935    -0.15300
C1682       C  0.90270257  0.57068090  0.86835798    -0.30500
H1683       H  0.91307385  0.50473590  0.87094195     0.13700
H1684       H  0.89844655  0.60057001  0.88073289     0.14300
C1685       C  0.90274153  0.57740323  0.61769511    -0.15300
C1686       C  0.91471796  0.55104515  0.63312268    -0.30500
H1687       H  0.89331541  0.59972120  0.62961853     0.18500
H1688       H  0.92581757  0.53227958  0.62077534     0.14300
C1689       C  0.94446182  0.43016516  0.79683986    -0.15300
C1690       C  0.94372522  0.38256275  0.78605025    -0.30500
H1691       H  0.94493350  0.43701500  0.82078469     0.13700
H1692       H  0.94441836  0.37689488  0.76210615     0.14300
C1693       C  0.93991206  0.37170776  0.53561373    -0.15300
C1694       C  0.93889241  0.41720166  0.54669925    -0.30500
H1695       H  0.94130721  0.36709540  0.51167496     0.13700
H1696       H  0.93845629  0.42220596  0.57073612     0.14300
C1697       C  0.91496816  0.15656378  0.96506108    -0.15300
C1698       C  0.91905715  0.20453319  0.95093161    -0.30500
H1699       H  0.91273559  0.12035870  0.95201037     0.13700
H1700       H  0.92218581  0.24140796  0.96404170     0.14300
C1701       C  0.91912136  0.15833440  0.71674200    -0.15300
C1702       C  0.92364129  0.20455603  0.70073744    -0.30500
H1703       H  0.91648948  0.12028595  0.70522610     0.13700
H1704       H  0.92696698  0.24294128  0.71249828     0.14300
C1705       C  0.82948332  0.16961353  0.86928096    -0.15300
C1706       C  0.82025227  0.20827188  0.87023619    -0.30500
H1707       H  0.81378434  0.12474579  0.87640235     0.13700
H1708       H  0.83640215  0.25354806  0.86408541     0.14300
C1709       C  0.80445462  0.38025705  0.95395132    -0.15300
C1710       C  0.82464033  0.39472867  0.97638810    -0.30500
H1711       H  0.80797910  0.41207179  0.93703335     0.13700
H1712       H  0.82056281  0.36110070  0.99246247     0.14300
C1713       C  0.82011287  0.18234552  0.62705430    -0.15300
C1714       C  0.83072410  0.14637925  0.62271731    -0.30500
H1715       H  0.83496119  0.22862782  0.62199381     0.13700
H1716       H  0.81655429  0.10048641  0.62887145     0.14300
C1717       C  0.80696586  0.35655413  0.70983163    -0.15300
C1718       C  0.83589477  0.37245961  0.71712183    -0.30500
H1719       H  0.80142041  0.38958675  0.70509438     0.13700
H1720       H  0.84104130  0.33841927  0.72043943     0.14300
C1721       C  0.72683100  0.17144244  0.78261567    -0.15300
C1722       C  0.71573814  0.20137443  0.79543941    -0.30500
H1723       H  0.73570312  0.15024753  0.79635100     0.13700
H1724       H  0.70596396  0.22151214  0.78221483     0.14300
C1725       C  0.73665466  0.19201675  0.55128689    -0.15300
C1726       C  0.71934877  0.19113028  0.52878303    -0.30500
H1727       H  0.75820057  0.19454522  0.54659353     0.13700
H1728       H  0.69846095  0.19121394  0.53312702     0.14300
C1729       C  0.52540294  0.28335655  0.78784913    -0.15300
C1730       C  0.01038426  0.22787266  0.80147924    -0.30500
H1731       H  0.51330306  0.30614463  0.78438836     0.13700
H1732       H  0.02224890  0.20534367  0.80677521     0.14300
C1733       C  0.65486217  0.25805530  0.69539460    -0.15300
C1734       C  0.65463211  0.27296724  0.72414219    -0.30500
H1735       H  0.64125223  0.26489516  0.67921295     0.13700
H1736       H  0.66613522  0.26190621  0.74083560     0.14300
C1737       C  0.61725258  0.43636497  0.86240516    -0.15300
C1738       C  0.60778540  0.39637354  0.88419478    -0.30500
H1739       H  0.62367029  0.48102963  0.86748878     0.13700
H1740       H  0.60200210  0.35202341  0.87930575     0.14300
C1741       C  0.60716374  0.38583341  0.63283493    -0.15300
C1742       C  0.61428567  0.42656923  0.61179460    -0.30500
H1743       H  0.60338433  0.34318760  0.62705080     0.13700
H1744       H  0.61833640  0.46938811  0.61766441     0.14300
C1745       C  0.53114496  0.25427246  0.53681196    -0.15300
C1746       C  0.01711215  0.23394111  0.55115676    -0.30500
H1747       H  0.52497254  0.20983902  0.53155514     0.13700
H1748       H  0.02924548  0.21077098  0.55122045     0.14300
C1749       C  0.65802174  0.29547941  0.97467155    -0.15300
C1750       C  0.65240597  0.27305650  0.94692757    -0.30500
H1751       H  0.67328842  0.29013417  0.98933117     0.13700
H1752       H  0.63519481  0.27404793  0.93316334     0.14300
C1753       C  0.87599473  0.93000041  0.86981466    -0.15300
C1754       C  0.87068607  0.97375301  0.87294275    -0.30500
H1755       H  0.89740153  0.93866409  0.85994843     0.13700
H1756       H  0.84973481  0.96456912  0.88414530     0.14300
C1757       C  0.84954568  0.66970806  0.94960947    -0.15300
C1758       C  0.87919809  0.69516759  0.95751853    -0.30500
H1759       H  0.83341716  0.62423237  0.95553795     0.13700
H1760       H  0.89490335  0.74201303  0.95458223     0.14300
C1761       C  0.70143662  0.62528352  0.94732338    -0.15300
C1762       C  0.69555797  0.57266899  0.95649823    -0.30500
H1763       H  0.68213400  0.63046283  0.94263487     0.13700
H1764       H  0.71418651  0.56568747  0.96136732     0.14300
C1765       C  0.86297841  0.94507561  0.63285383    -0.15300
C1766       C  0.89024374  0.97281863  0.61880486    -0.30500
H1767       H  0.85210859  0.96932054  0.63868008     0.13700
H1768       H  0.90021923  0.94803162  0.61103792     0.14300
C1769       C  0.85880872  0.70312254  0.70526655    -0.15300
C1770       C  0.84690334  0.64592793  0.71040908    -0.30500
H1771       H  0.88271152  0.73484264  0.71077480     0.13700
H1772       H  0.82403425  0.61379871  0.70219119     0.14300
C1773       C  0.70119824  0.60054719  0.68757489    -0.15300
C1774       C  0.69605018  0.55596554  0.70530674    -0.30500
H1775       H  0.68192709  0.59617752  0.67491198     0.13700
H1776       H  0.71431012  0.55819326  0.71873277     0.14300
C1777       C  0.77750386  0.76795327  0.78085399    -0.15300
C1778       C  0.79482262  0.75192118  0.79548596    -0.30500
H1779       H  0.76466335  0.78275025  0.79344720     0.13700
H1780       H  0.80791894  0.73768214  0.78290683     0.14300
C1781       C  0.79951949  0.76660865  0.54690937    -0.15300
C1782       C  0.78231267  0.78303877  0.53224987    -0.30500
H1783       H  0.81297425  0.75301737  0.53447638     0.13700
H1784       H  0.77001760  0.79901828  0.54485655     0.14300
C1785       C  0.98891098  0.72105442  0.78679584    -0.15300
C1786       C  0.52334641  0.74785872  0.79326771    -0.30500
H1787       H  0.99458591  0.76609367  0.78590021     0.13700
H1788       H  0.51363999  0.77505453  0.79635762     0.14300
C1789       C  0.63878188  0.00475085  0.85784997    -0.15300
C1790       C  0.66030669  0.03158678  0.87905000    -0.30500
H1791       H  0.63111926  0.02974286  0.84565512     0.13700
H1792       H  0.67052238  0.00891100  0.88902405     0.14300
C1793       C  0.69953026  0.83937128  0.88037710    -0.15300
C1794       C  0.71868985  0.82306246  0.87026685    -0.30500
H1795       H  0.70535892  0.86548819  0.90062375     0.13700
H1796       H  0.71368526  0.79975157  0.84915130     0.14300
C1797       C  0.58700068  0.57093887  0.77520748    -0.15300
C1798       C  0.59112711  0.58440888  0.80438435    -0.30500
H1799       H  0.58473799  0.59966150  0.75983434     0.13700
H1800       H  0.59473721  0.55698869  0.81948915     0.14300
C1801       C  0.51181137  0.70929865  0.54524527    -0.15300
C1802       C  0.00110427  0.69184525  0.53723529    -0.30500
H1803       H  0.50307978  0.66342450  0.54986867     0.13700
H1804       H  0.01120626  0.66506359  0.53536124     0.14300
C1805       C  0.65769593  0.01458760  0.62594430    -0.15300
C1806       C  0.63397641  0.99061541  0.60636618    -0.30500
H1807       H  0.66591881  0.98765171  0.63480512     0.13700
H1808       H  0.62742319  0.01845080  0.59538280     0.14300
C1809       C  0.69060967  0.82465782  0.62488950    -0.15300
C1810       C  0.70797424  0.80390506  0.61568911    -0.30500
H1811       H  0.69809473  0.85463348  0.64377073     0.13700
H1812       H  0.70121577  0.77570247  0.59614479     0.14300
C1813       C  0.58303088  0.56733163  0.55460027    -0.15300
C1814       C  0.57743779  0.55218135  0.52568256    -0.30500
H1815       H  0.58738377  0.54074963  0.56959138     0.13700
H1816       H  0.57433191  0.58006409  0.51045094     0.14300
C1817       C  0.61493899  0.78553417  0.96764757    -0.15300
C1818       C  0.60556472  0.80572671  0.94547845    -0.30500
H1819       H  0.62344219  0.75679549  0.96297484     0.13700
H1820       H  0.59681378  0.83403951  0.95023277     0.14300
C1821       C  0.61443478  0.77733333  0.71642396    -0.15300
C1822       C  0.60190533  0.79420912  0.69554325    -0.30500
H1823       H  0.62289103  0.74897729  0.71059669     0.13700
H1824       H  0.59330210  0.82232678  0.70138370     0.14300
loop_ 
_geom_bond_atom_site_label_1 
_geom_bond_atom_site_label_2 
_geom_bond_distance 
_geom_bond_site_symmetry_2 
_ccdc_geom_bond_type 
O1           Ni7   1.920       .  S
O1           C22   1.269       .  A
O2          Ni25   1.891       .  S
O2           C11   1.261       .  A
O3           Ni7   1.916       .  S
O3          Ni25   1.914       .  S
O3          Ni19   1.913       .  S
O3           H26   0.966       .  S
C4           O21   1.267       .  A
C4           O13   1.273       .  A
C4          C905   1.461   1_554  S
O5          Ni24   1.939       .  S
O5           C11   1.270       .  A
O6          Ni24   1.909       .  S
O6            C8   1.271       .  A
Ni7          O10   1.937       .  S
Ni7          O12   1.904       .  S
C8           O18   1.280       .  A
C8          C433   1.480       .  S
O9          Ni25   1.880       .  S
O9           C15   1.256       .  A
O10          C15   1.274       .  A
C11         C438   1.476   1_565  S
O12          C14   1.268       .  A
O13         Ni24   1.920       .  S
C14          O20   1.275       .  A
C14         C441   1.472       .  S
C15         C454   1.460       .  S
H16          O17   0.966       .  S
O17         Ni25   1.893       .  S
O17         Ni19   1.918       .  S
O17         Ni24   1.923       .  S
O18         Ni19   1.943       .  S
Ni19         O23   1.933       .  S
Ni19         O21   1.895       .  S
O20         Ni25   1.953       .  S
C22          O23   1.275       .  A
C22         C445   1.490       .  S
O27         Ni33   1.936       .  S
O27          C48   1.273       .  A
O28         Ni51   1.903       .  S
O28          C37   1.269       .  A
O29         Ni33   1.925       .  S
O29         Ni51   1.919       .  S
O29         Ni45   1.911       .  S
O29          H52   0.965       .  S
C30          O47   1.256       .  A
C30          O39   1.274       .  A
C30         C453   1.455       .  S
O31         Ni50   1.928       .  S
O31          C37   1.270       .  A
O32         Ni50   1.898       .  S
O32          C34   1.266       .  A
Ni33         O36   1.942       .  S
Ni33         O38   1.905       .  S
C34          O44   1.280       .  A
C34         C418   1.478       .  S
O35         Ni51   1.899       .  S
O35          C41   1.267       .  A
O36          C41   1.274       .  A
C37         C421   1.468   1_565  S
O38          C40   1.269       .  A
O39         Ni50   1.941       .  S
C40          O46   1.274       .  A
C40         C425   1.469       .  S
C41         C450   1.472       .  S
H42          O43   0.967       .  S
O43         Ni51   1.901       .  S
O43         Ni45   1.895       .  S
O43         Ni50   1.926       .  S
O44         Ni45   1.951       .  S
Ni45         O49   1.899       .  S
Ni45         O47   1.874       .  S
O46         Ni51   1.945       .  S
C48          O49   1.261       .  A
C48         C430   1.483       .  S
O53         Ni59   1.915       .  S
O53          C74   1.269       .  A
O54         Ni77   1.900       .  S
O54          C63   1.269       .  A
O55         Ni59   1.916       .  S
O55         Ni77   1.916       .  S
O55         Ni71   1.945       .  S
O55          H78   0.966       .  S
C56          O73   1.275       .  A
C56          O65   1.275       .  A
C56         C413   1.483       .  S
O57         Ni76   1.944       .  S
O57          C63   1.278       .  A
O58         Ni76   1.924       .  S
O58          C60   1.275       .  A
Ni59         O62   1.930       .  S
Ni59         O64   1.893       .  S
C60          O70   1.271       .  A
C60         C397   1.478       .  S
O61         Ni77   1.912       .  S
O61          C67   1.267       .  A
O62          C67   1.267       .  A
C63         C401   1.478       .  S
O64          C66   1.271       .  A
O65         Ni76   1.938       .  S
C66          O72   1.285       .  A
C66         C405   1.473       .  S
C67         C409   1.481       .  S
H68          O69   0.966       .  S
O69         Ni77   1.906       .  S
O69         Ni71   1.896       .  S
O69         Ni76   1.922       .  S
O70         Ni71   1.925       .  S
Ni71         O75   1.907       .  S
Ni71         O73   1.912       .  S
O72         Ni77   1.969       .  S
C74          O75   1.265       .  A
C74         C442   1.474       .  S
O79         Ni85   1.920       .  S
O79         C100   1.270       .  A
O80        Ni103   1.898       .  S
O80          C89   1.268       .  A
O81         Ni85   1.919       .  S
O81        Ni103   1.917       .  S
O81         Ni97   1.935       .  S
O81         H104   0.966       .  S
C82          O99   1.275       .  A
C82          O91   1.275       .  A
C82         C410   1.481       .  S
O83        Ni102   1.947       .  S
O83          C89   1.278       .  A
O84        Ni102   1.923       .  S
O84          C86   1.274       .  A
Ni85         O88   1.924       .  S
Ni85         O90   1.893       .  S
C86          O96   1.269       .  A
C86         C385   1.470       .  S
O87        Ni103   1.907       .  S
O87          C93   1.269       .  A
O88          C93   1.269       .  A
C89         C389   1.477       .  S
O90          C92   1.270       .  A
O91        Ni102   1.938       .  S
C92          O98   1.279       .  A
C92         C393   1.470       .  S
C93         C870   1.482       .  S
H94          O95   0.966       .  S
O95        Ni103   1.908       .  S
O95         Ni97   1.899       .  S
O95        Ni102   1.921       .  S
O96         Ni97   1.919       .  S
Ni97        O101   1.903       .  S
Ni97         O99   1.914       .  S
O98        Ni103   1.947       .  S
C100        O101   1.264       .  A
C100        C426   1.470       .  S
O105       Ni111   1.918       .  S
O105        C582   1.268       .  A
O106       Ni129   1.895       .  S
O106        C115   1.267       .  A
O107       Ni111   1.915       .  S
O107       Ni129   1.914       .  S
O107       Ni579   1.931       .  S
O107        H130   0.966       .  S
C108        O125   1.267       .  A
C108        O117   1.277       .  A
C108        C374   1.472       .  S
O109       Ni128   1.952       .  S
O109        C571   1.278   1_554  A
O110       Ni128   1.917       .  S
O110        C112   1.275       .  A
Ni111       O114   1.925       .  S
Ni111       O116   1.882       .  S
C112        O122   1.280       .  A
C112        C377   1.472       .  S
O113       Ni129   1.886       .  S
O113        C119   1.255       .  A
O114        C119   1.268       .  A
C115        O565   1.272       .  A
C115        C381   1.469       .  S
O116        C118   1.272       .  A
O117       Ni128   1.940       .  S
C118        O124   1.286       .  A
C118        C394   1.486       .  S
C119        C370   1.460       .  S
H120        O121   0.966       .  S
O121       Ni123   1.908       .  S
O121       Ni128   1.919       .  S
O121       Ni585   1.903   1_554  S
O122       Ni123   1.940       .  S
Ni123       O127   1.931       .  S
Ni123       O125   1.898       .  S
Ni123       O563   1.926   1_554  S
O124       Ni129   1.975       .  S
C126        O127   1.275       .  A
C126        O561   1.267   1_554  A
C126        C446   1.489       .  S
Ni129       O577   1.883       .  S
O131       Ni137   1.943       .  S
O131        C152   1.273       .  A
O132       Ni155   1.901       .  S
O132        C141   1.269       .  A
O133       Ni137   1.925       .  S
O133       Ni155   1.919       .  S
O133       Ni149   1.918       .  S
O133        H156   0.966       .  S
C134        O151   1.262       .  A
C134        O143   1.276       .  A
C134        C369   1.460       .  S
O135       Ni154   1.940       .  S
O135        C141   1.276       .  A
O136       Ni154   1.927       .  S
O136        C138   1.275       .  A
Ni137       O140   1.932       .  S
Ni137       O142   1.890       .  S
C138        O148   1.273       .  A
C138        C361   1.482       .  S
O139       Ni155   1.890       .  S
O139        C145   1.261       .  A
O140        C145   1.272       .  A
C141        C366   1.477       .  S
O142        C144   1.272       .  A
O143       Ni154   1.940       .  S
C144        O150   1.282       .  A
C144        C406   1.481       .  S
C145        C373   1.469       .  S
H146        O147   0.967       .  S
O147       Ni155   1.896       .  S
O147       Ni149   1.891       .  S
O147       Ni154   1.924       .  S
O148       Ni149   1.938       .  S
Ni149       O153   1.890       .  S
Ni149       O151   1.885       .  S
O150       Ni155   1.963       .  S
C152        O153   1.260       .  A
C152        C429   1.480       .  S
O157       Ni163   1.925       .  S
O157        C178   1.270       .  A
O158       Ni181   1.893       .  S
O158        C167   1.268       .  A
O159       Ni163   1.903       .  S
O159       Ni181   1.894       .  S
O159       Ni175   1.896       .  S
O159        H182   0.966       .  S
C160        O177   1.264       .  A
C160        O169   1.277       .  A
C160        C357   1.479       .  S
O161       Ni180   1.948       .  S
O161        C167   1.278       .  A
O162       Ni180   1.907       .  S
O162        C164   1.274       .  A
Ni163       O166   1.907       .  S
Ni163       O168   1.907       .  S
C164        O174   1.279       .  A
C164        C437   1.470       .  S
O165       Ni181   1.943       .  S
O165        C171   1.284       .  A
O166        C171   1.273       .  A
C167        C365   1.480       .  S
O168        C170   1.269       .  A
O169       Ni180   1.949       .  S
C170        O176   1.266       .  A
C170        C349   1.472       .  S
C171        C353   1.477       .  S
H172        O173   0.966       .  S
O173       Ni181   1.934       .  S
O173       Ni175   1.909       .  S
O173       Ni180   1.915       .  S
O174       Ni175   1.941       .  S
Ni175       O179   1.913       .  S
Ni175       O177   1.895       .  S
O176       Ni181   1.923       .  S
C178        O179   1.265       .  A
C178        C345   1.465       .  S
O183       Ni189   1.934       .  S
O183        C204   1.273       .  A
O184       Ni207   1.899       .  S
O184        C193   1.268       .  A
O185       Ni189   1.902       .  S
O185       Ni207   1.906       .  S
O185       Ni201   1.919       .  S
O185        H208   0.966       .  S
C186        O203   1.278       .  A
C186        O195   1.274       .  A
C186        C354   1.480       .  S
O187       Ni206   1.932       .  S
O187        C193   1.273       .  A
O188       Ni206   1.914       .  S
O188        C190   1.272       .  A
Ni189       O192   1.923       .  S
Ni189       O194   1.905       .  S
C190        O200   1.271       .  A
C190        C422   1.469       .  S
O191       Ni207   1.931       .  S
O191        C197   1.277       .  A
O192        C197   1.275       .  A
C193        C382   1.470       .  S
O194        C196   1.273       .  A
O195       Ni206   1.930       .  S
C196        O202   1.271       .  A
C196        C341   1.483       .  S
C197        C814   1.482       .  S
H198        O199   0.966       .  S
O199       Ni207   1.914       .  S
O199       Ni201   1.905       .  S
O199       Ni206   1.913       .  S
O200       Ni201   1.920       .  S
Ni201       O205   1.919       .  S
Ni201       O203   1.916       .  S
O202       Ni207   1.930       .  S
C204        O205   1.269       .  A
C204        C338   1.477       .  S
O209       Ni215   1.926       .  S
O209        C230   1.270       .  A
O210       Ni233   1.907       .  S
O210        C219   1.272       .  A
O211       Ni215   1.916       .  S
O211       Ni233   1.924       .  S
O211       Ni227   1.935       .  S
O211        H234   0.966       .  S
C212        O229   1.277   1_556  A
C212        O221   1.281   1_556  A
C212        C785   1.490       .  S
O213       Ni232   1.947       .  S
O213        C219   1.277       .  A
O214       Ni232   1.928       .  S
O214        C216   1.270       .  A
Ni215       O218   1.921       .  S
Ni215       O220   1.895       .  S
C216        O226   1.266       .  A
C216        C378   1.485       .  S
O217       Ni233   1.934       .  S
O217        C223   1.275       .  A
O218        C223   1.271       .  A
C219        C398   1.483   1_545  S
O220        C222   1.272       .  A
O221       Ni232   1.950       .  S
C222        O228   1.278       .  A
C222        C346   1.485       .  S
C223        C334   1.489       .  S
H224        O225   0.966       .  S
O225       Ni233   1.910       .  S
O225       Ni227   1.894       .  S
O225       Ni232   1.918       .  S
O226       Ni227   1.905       .  S
Ni227       O231   1.899       .  S
Ni227       O229   1.919       .  S
O228       Ni233   1.943       .  S
C230        O231   1.262       .  A
C230        C325   1.474       .  S
O235       Ni241   1.928       .  S
O235        C256   1.272       .  A
O236       Ni259   1.902       .  S
O236        C245   1.269       .  A
O237       Ni241   1.921       .  S
O237       Ni259   1.919       .  S
O237       Ni253   1.940       .  S
O237        H260   0.966       .  S
C238        O255   1.280       .  A
C238        O247   1.277       .  A
C238        C333   1.490       .  S
O239       Ni258   1.936       .  S
O239        C245   1.271       .  A
O240       Ni258   1.916       .  S
O240        C242   1.268       .  A
Ni241       O244   1.936       .  S
Ni241       O246   1.903       .  S
C242        O252   1.271       .  A
C242        C362   1.483       .  S
O243       Ni259   1.924       .  S
O243        C249   1.273       .  A
O244        C249   1.272       .  A
C245        C386   1.478   1_545  S
O246        C248   1.271       .  A
O247       Ni258   1.936       .  S
C248        O254   1.280       .  A
C248        C337   1.489       .  S
C249        C330   1.492       .  S
H250        O251   0.966       .  S
O251       Ni259   1.915       .  S
O251       Ni253   1.898       .  S
O251       Ni258   1.927       .  S
O252       Ni253   1.917       .  S
Ni253       O257   1.904       .  S
Ni253       O255   1.929       .  S
O254       Ni259   1.955       .  S
C256        O257   1.266       .  A
C256        C322   1.478       .  S
O261       Ni267   1.916       .  S
O261        C738   1.268       .  A
O262       Ni285   1.903       .  S
O262        C271   1.271       .  A
O263       Ni267   1.915       .  S
O263       Ni285   1.916       .  S
O263       Ni735   1.935       .  S
O263        H286   0.966       .  S
C264        O281   1.278       .  A
C264        O273   1.282       .  A
C264        C317   1.492       .  S
O265       Ni284   1.965   1_556  S
O265        C727   1.282       .  A
O266       Ni284   1.940       .  S
O266        C268   1.277       .  A
Ni267       O270   1.918       .  S
Ni267       O272   1.886       .  S
C268        O278   1.265       .  A
C268        C434   1.478       .  S
O269       Ni285   1.932       .  S
O269        C275   1.275       .  A
O270        C275   1.270       .  A
C271        O721   1.280       .  A
C271        C390   1.481       .  S
O272        C274   1.266       .  A
O273       Ni284   1.954       .  S
C274        O280   1.279       .  A
C274        C342   1.465       .  S
C275        C313   1.487       .  S
H276        O277   0.967       .  S
O277       Ni279   1.889       .  S
O277       Ni284   1.922       .  S
O277       Ni741   1.902   1_554  S
O278       Ni279   1.909       .  S
Ni279       O283   1.898       .  S
Ni279       O281   1.919       .  S
Ni279       O719   1.949   1_554  S
O280       Ni285   1.949       .  S
C282        O283   1.262       .  A
C282        O717   1.269       .  A
C282        C326   1.474       .  S
Ni285       O733   1.919       .  S
O287       Ni293   1.923       .  S
O287        C308   1.270       .  A
O288       Ni311   1.897       .  S
O288        C297   1.267       .  A
O289       Ni293   1.922       .  S
O289       Ni311   1.920       .  S
O289       Ni305   1.944       .  S
O289        H312   0.966       .  S
C290        O307   1.275       .  A
C290        O299   1.274       .  A
C290        C314   1.485       .  S
O291       Ni310   1.946       .  S
O291        C297   1.277       .  A
O292       Ni310   1.928       .  S
O292        C294   1.276       .  A
Ni293       O296   1.937       .  S
Ni293       O298   1.885       .  S
C294        O304   1.268       .  A
C294        C417   1.471       .  S
O295       Ni311   1.920       .  S
O295        C301   1.268       .  A
O296        C301   1.270       .  A
C297        C402   1.476       .  S
O298        C300   1.267       .  A
O299       Ni310   1.935       .  S
C300        O306   1.281       .  A
C300        C350   1.462       .  S
C301        C318   1.491       .  S
H302        O303   0.966       .  S
O303       Ni311   1.914       .  S
O303       Ni305   1.903       .  S
O303       Ni310   1.927       .  S
O304       Ni305   1.912       .  S
Ni305       O309   1.904       .  S
Ni305       O307   1.921       .  S
O306       Ni311   1.959       .  S
C308        O309   1.265       .  A
C308        C321   1.478       .  S
C313        C314   1.345       .  D
C313        H315   1.087       .  S
C314        H316   1.087       .  S
C317        C318   1.349       .  D
C317        H319   1.087       .  S
C318        H320   1.087       .  S
C321        C322   1.346       .  D
C321        H323   1.087       .  S
C322        H324   1.087       .  S
C325        C326   1.344       .  D
C325        H327   1.087       .  S
C326        H328   1.087       .  S
C329        C668   1.490       .  S
C329        C330   1.347       .  D
C329        H331   1.087       .  S
C330        H332   1.087       .  S
C333        C334   1.347       .  D
C333        H335   1.087       .  S
C334        H336   1.087       .  S
C337        C338   1.349       .  D
C337        H339   1.087       .  S
C338        H340   1.086       .  S
C341        C342   1.341       .  D
C341        H343   1.086       .  S
C342        H344   1.088       .  S
C345        C346   1.346       .  D
C345        H347   1.086       .  S
C346        H348   1.086       .  S
C349        C350   1.338       .  D
C349        H351   1.087       .  S
C350        H352   1.088       .  S
C353        C354   1.340       .  D
C353        H355   1.088       .  S
C354        H356   1.087       .  S
C357        C358   1.341       .  D
C357        H359   1.087       .  S
C358        C653   1.475   1_554  S
C358        H360   1.087       .  S
C361       C1274   1.348       .  D
C361        H363   1.087       .  S
C362       C1273   1.343       .  D
C362        H364   1.086       .  S
C365        C366   1.346       .  D
C365        H367   1.087       .  S
C366        H368   1.087       .  S
C369        C370   1.338       .  D
C369        H371   1.088       .  S
C370        H372   1.087       .  S
C373        C374   1.342       .  D
C373        H375   1.087       .  S
C374        H376   1.087       .  S
C377       C1290   1.351       .  D
C377        H379   1.087       .  S
C378       C1289   1.350       .  D
C378        H380   1.086       .  S
C381        C382   1.339       .  D
C381        H383   1.087       .  S
C382        H384   1.087       .  S
C385        C386   1.340       .  D
C385        H387   1.087       .  S
C386        H388   1.087       .  S
C389        C390   1.345       .  D
C389        H391   1.087       .  S
C390        H392   1.087       .  S
C393        C394   1.349       .  D
C393        H395   1.088       .  S
C394        H396   1.086       .  S
C397        C398   1.344       .  D
C397        H399   1.087       .  S
C398        H400   1.087       .  S
C401        C402   1.344       .  D
C401        H403   1.087       .  S
C402        H404   1.087       .  S
C405        C406   1.346       .  D
C405        H407   1.089       .  S
C406        H408   1.086       .  S
C409        C410   1.343       .  D
C409        H411   1.087       .  S
C410        H412   1.087       .  S
C413        C414   1.342       .  D
C413        H415   1.086       .  S
C414        C549   1.480       .  S
C414        H416   1.088       .  S
C417       C1330   1.341       .  D
C417        H419   1.087       .  S
C418       C1329   1.340   1_455  D
C418        H420   1.087       .  S
C421        C422   1.340       .  D
C421        H423   1.087       .  S
C422        H424   1.088       .  S
C425        C426   1.340       .  D
C425        H427   1.087       .  S
C426        H428   1.087       .  S
C429        C430   1.343       .  D
C429        H431   1.087       .  S
C430        H432   1.087       .  S
C433       C1346   1.342       .  D
C433        H435   1.086       .  S
C434       C1345   1.341       .  D
C434        H436   1.087       .  S
C437        C438   1.347       .  D
C437        H439   1.087       .  S
C438        H440   1.087       .  S
C441        C442   1.342       .  D
C441        H443   1.087       .  S
C442        H444   1.087       .  S
C445        C446   1.343       .  D
C445        H447   1.087       .  S
C446        H448   1.087       .  S
C449        C460   1.476       .  S
C449        C450   1.348       .  D
C449        H451   1.086       .  S
C450        H452   1.087       .  S
C453        C454   1.334       .  D
C453        H455   1.088       .  S
C454        H456   1.087       .  S
O457       Ni463   1.911       .  S
O457        C478   1.265       .  A
O458       Ni481   1.904       .  S
O458        C467   1.267       .  A
O459       Ni463   1.921       .  S
O459       Ni481   1.919       .  S
O459       Ni475   1.926       .  S
O459        H482   0.966       .  S
C460        O477   1.271       .  A
C460        O469   1.274       .  A
O461       Ni480   1.931       .  S
O461        C467   1.269       .  A
O462       Ni480   1.901       .  S
O462        C464   1.265       .  A
Ni463       O466   1.915       .  S
Ni463       O468   1.893       .  S
C464        O474   1.278       .  A
C464        C889   1.477       .  S
O465       Ni481   1.899       .  S
O465        C471   1.263       .  A
O466        C471   1.268       .  A
C467        C894   1.476   1_565  S
O468        C470   1.270       .  A
O469       Ni480   1.929       .  S
C470        O476   1.282       .  A
C470        C897   1.493       .  S
C471        C910   1.467       .  S
H472        O473   0.966       .  S
O473       Ni481   1.905       .  S
O473       Ni475   1.913       .  S
O473       Ni480   1.927       .  S
O474       Ni475   1.938       .  S
Ni475       O479   1.920       .  S
Ni475       O477   1.910       .  S
O476       Ni481   1.964       .  S
C478        O479   1.271       .  A
C478        C901   1.478       .  S
O483       Ni489   1.909       .  S
O483        C504   1.265       .  A
O484       Ni507   1.904       .  S
O484        C493   1.270       .  A
O485       Ni489   1.911       .  S
O485       Ni507   1.917       .  S
O485       Ni501   1.937       .  S
O485        H508   0.966       .  S
C486        O503   1.274       .  A
C486        O495   1.281       .  A
C486        C909   1.465       .  S
O487       Ni506   1.956       .  S
O487        C493   1.279       .  A
O488       Ni506   1.933       .  S
O488        C490   1.274       .  A
Ni489       O492   1.920       .  S
Ni489       O494   1.888       .  S
C490        O500   1.268       .  A
C490        C874   1.476       .  S
O491       Ni507   1.889       .  S
O491        C497   1.259       .  A
O492        C497   1.265       .  A
C493        C877   1.490       .  S
O494        C496   1.271       .  A
O495       Ni506   1.938       .  S
C496        O502   1.288       .  A
C496        C881   1.487       .  S
C497        C906   1.458       .  S
H498        O499   0.967       .  S
O499       Ni507   1.877       .  S
O499       Ni501   1.890       .  S
O499       Ni506   1.915       .  S
O500       Ni501   1.916       .  S
Ni501       O505   1.919       .  S
Ni501       O503   1.896       .  S
O502       Ni507   1.978       .  S
C504        O505   1.272       .  A
C504        C886   1.480       .  S
O509       Ni515   1.933       .  S
O509        C530   1.274       .  A
O510       Ni533   1.892       .  S
O510        C519   1.266       .  A
O511       Ni515   1.900       .  S
O511       Ni533   1.897       .  S
O511       Ni527   1.920       .  S
O511        H534   0.966       .  S
C512        O529   1.278       .  A
C512        O521   1.274       .  A
C512        C869   1.474       .  S
O513       Ni532   1.939       .  S
O513        C519   1.274       .  A
O514       Ni532   1.918       .  S
O514        C516   1.273       .  A
Ni515       O518   1.927       .  S
Ni515       O520   1.906       .  S
C516        O526   1.275       .  A
C516        C853   1.480       .  S
O517       Ni533   1.924       .  S
O517        C523   1.274       .  A
O518        C523   1.279       .  A
C519        C857   1.466       .  S
O520        C522   1.270       .  A
O521       Ni532   1.923       .  S
C522        O528   1.274       .  A
C522        C861   1.484       .  S
C523        C865   1.483       .  S
H524        O525   0.966       .  S
O525       Ni533   1.910       .  S
O525       Ni527   1.908       .  S
O525       Ni532   1.910       .  S
O526       Ni527   1.932       .  S
Ni527       O531   1.924       .  S
Ni527       O529   1.923       .  S
O528       Ni533   1.942       .  S
C530        O531   1.271       .  A
C530        C898   1.475       .  S
O535       Ni541   1.931       .  S
O535        C556   1.271       .  A
O536       Ni559   1.912       .  S
O536        C545   1.272       .  A
O537       Ni541   1.899       .  S
O537       Ni559   1.904       .  S
O537       Ni553   1.903       .  S
O537        H560   0.966       .  S
C538        O555   1.270       .  A
C538        O547   1.282       .  A
C538        C866   1.481       .  S
O539       Ni558   1.955       .  S
O539        C545   1.278       .  A
O540       Ni558   1.906       .  S
O540        C542   1.270       .  A
Ni541       O544   1.911       .  S
Ni541       O546   1.905       .  S
C542        O552   1.271       .  A
C542        C841   1.472       .  S
O543       Ni559   1.946       .  S
O543        C549   1.285   1_556  A
O544        C549   1.275   1_556  A
C545        C845   1.485       .  S
O546        C548   1.270       .  A
O547       Ni558   1.953       .  S
C548        O554   1.269       .  A
C548        C849   1.473       .  S
H550        O551   0.966       .  S
O551       Ni559   1.917       .  S
O551       Ni553   1.904       .  S
O551       Ni558   1.909       .  S
O552       Ni553   1.924       .  S
Ni553       O557   1.914       .  S
Ni553       O555   1.899       .  S
O554       Ni559   1.930       .  S
C556        O557   1.264       .  A
C556        C882   1.467       .  S
O561       Ni567   1.916       .  S
O562       Ni585   1.904       .  S
O562        C571   1.267       .  A
O563       Ni567   1.918       .  S
O563       Ni585   1.914       .  S
O563        H586   0.966       .  S
C564        O581   1.271       .  A
C564        O573   1.273       .  A
C564        C830   1.460       .  S
O565       Ni584   1.933       .  S
O566       Ni584   1.923       .  S
O566        C568   1.274       .  A
Ni567       O570   1.929       .  S
Ni567       O572   1.885       .  S
C568        O578   1.272       .  A
C568        C833   1.474       .  S
O569       Ni585   1.889       .  S
O569        C575   1.258       .  A
O570        C575   1.269       .  A
C571        C837   1.489       .  S
O572        C574   1.267       .  A
O573       Ni584   1.914       .  S
C574        O580   1.282       .  A
C574        C850   1.463       .  S
C575        C826   1.464       .  S
H576        O577   0.966       .  S
O577       Ni579   1.899       .  S
O577       Ni584   1.914       .  S
O578       Ni579   1.931       .  S
Ni579       O583   1.913       .  S
Ni579       O581   1.902       .  S
O580       Ni585   1.966       .  S
C582        O583   1.271       .  A
C582        C902   1.482       .  S
O587       Ni593   1.906       .  S
O587        C608   1.264       .  A
O588       Ni611   1.904       .  S
O588        C597   1.269       .  A
O589       Ni593   1.922       .  S
O589       Ni611   1.920       .  S
O589       Ni605   1.926       .  S
O589        H612   0.966       .  S
C590        O607   1.266       .  A
C590        O599   1.276       .  A
C590        C825   1.465       .  S
O591       Ni610   1.947       .  S
O591        C597   1.277       .  A
O592       Ni610   1.926       .  S
O592        C594   1.275       .  A
Ni593       O596   1.911       .  S
Ni593       O598   1.888       .  S
C594        O604   1.277       .  A
C594        C817   1.485       .  S
O595       Ni611   1.889       .  S
O595        C601   1.260       .  A
O596        C601   1.264       .  A
C597        C822   1.482       .  S
O598        C600   1.268       .  A
O599       Ni610   1.932       .  S
C600        O606   1.285       .  A
C600        C862   1.471       .  S
C601        C829   1.456       .  S
H602        O603   0.966       .  S
O603       Ni611   1.895       .  S
O603       Ni605   1.902       .  S
O603       Ni610   1.924       .  S
O604       Ni605   1.941       .  S
Ni605       O609   1.919       .  S
Ni605       O607   1.893       .  S
O606       Ni611   1.974       .  S
C608        O609   1.271       .  A
C608        C885   1.478       .  S
O613       Ni619   1.926       .  S
O613        C634   1.270       .  A
O614       Ni637   1.910       .  S
O614        C623   1.270       .  A
O615       Ni619   1.921       .  S
O615       Ni637   1.924       .  S
O615       Ni631   1.932       .  S
O615        H638   0.966       .  S
C616        O633   1.274       .  A
C616        O625   1.275       .  A
C616        C813   1.482       .  S
O617       Ni636   1.941       .  S
O617        C623   1.275       .  A
O618       Ni636   1.923       .  S
O618        C620   1.273       .  A
Ni619       O622   1.924       .  S
Ni619       O624   1.896       .  S
C620        O630   1.266       .  A
C620        C893   1.468       .  S
O621       Ni637   1.911       .  S
O621        C627   1.271       .  A
O622        C627   1.270       .  A
C623        C821   1.481       .  S
O624        C626   1.269       .  A
O625       Ni636   1.938       .  S
C626        O632   1.277       .  A
C626        C805   1.465       .  S
C627        C809   1.481       .  S
H628        O629   0.966       .  S
O629       Ni637   1.911       .  S
O629       Ni631   1.902       .  S
O629       Ni636   1.922       .  S
O630       Ni631   1.912       .  S
Ni631       O635   1.901       .  S
Ni631       O633   1.912       .  S
O632       Ni637   1.945       .  S
C634        O635   1.261       .  A
C634        C801   1.468       .  S
O639       Ni645   1.939       .  S
O639        C660   1.274       .  A
O640       Ni663   1.901       .  S
O640        C649   1.267       .  A
O641       Ni645   1.914       .  S
O641       Ni663   1.911       .  S
O641       Ni657   1.924       .  S
O641        H664   0.966       .  S
C642        O659   1.276       .  A
C642        O651   1.277       .  A
C642        C810   1.478       .  S
O643       Ni662   1.958       .  S
O643        C649   1.280       .  A
O644       Ni662   1.930       .  S
O644        C646   1.276       .  A
Ni645       O648   1.934       .  S
Ni645       O650   1.901       .  S
C646        O656   1.273       .  A
C646        C878   1.482       .  S
O647       Ni663   1.903       .  S
O647        C653   1.267       .  A
O648        C653   1.277       .  A
C649        C838   1.489       .  S
O650        C652   1.272       .  A
O651       Ni662   1.936       .  S
C652        O658   1.275       .  A
C652        C797   1.483       .  S
H654        O655   0.966       .  S
O655       Ni663   1.903       .  S
O655       Ni657   1.907       .  S
O655       Ni662   1.916       .  S
O656       Ni657   1.929       .  S
Ni657       O661   1.922       .  S
Ni657       O659   1.914       .  S
O658       Ni663   1.942       .  S
C660        O661   1.271       .  A
C660        C794   1.481       .  S
O665       Ni671   1.925       .  S
O665        C686   1.270       .  A
O666       Ni689   1.899       .  S
O666        C675   1.268       .  A
O667       Ni671   1.919       .  S
O667       Ni689   1.918       .  S
O667       Ni683   1.954       .  S
O667        H690   0.966       .  S
C668        O685   1.280       .  A
C668        O677   1.278       .  A
O669       Ni688   1.947       .  S
O669        C675   1.277       .  A
O670       Ni688   1.937       .  S
O670        C672   1.275       .  A
Ni671       O674   1.939       .  S
Ni671       O676   1.899       .  S
C672        O682   1.263       .  A
C672        C834   1.476       .  S
O673       Ni689   1.916       .  S
O673        C679   1.268       .  A
O674        C679   1.271       .  A
C675        C854   1.483   1_545  S
O676        C678   1.273       .  A
O677       Ni688   1.941       .  S
C678        O684   1.281       .  A
C678        C802   1.474       .  S
C679        C790   1.487       .  S
H680        O681   0.967       .  S
O681       Ni689   1.904       .  S
O681       Ni683   1.888       .  S
O681       Ni688   1.923       .  S
O682       Ni683   1.904       .  S
Ni683       O687   1.893       .  S
Ni683       O685   1.929       .  S
O684       Ni689   1.954       .  S
C686        O687   1.263       .  A
C686        C781   1.471       .  S
O691       Ni697   1.932       .  S
O691        C712   1.273       .  A
O692       Ni715   1.894       .  S
O692        C701   1.268       .  A
O693       Ni697   1.915       .  S
O693       Ni715   1.909       .  S
O693       Ni709   1.926       .  S
O693        H716   0.966       .  S
C694        O711   1.275       .  A
C694        O703   1.279       .  A
C694        C789   1.489       .  S
O695       Ni714   1.941       .  S
O695        C701   1.275       .  A
O696       Ni714   1.920       .  S
O696        C698   1.269       .  A
Ni697       O700   1.934       .  S
Ni697       O702   1.904       .  S
C698        O708   1.272       .  A
C698        C818   1.489       .  S
O699       Ni715   1.929       .  S
O699        C705   1.276       .  A
O700        C705   1.277       .  A
C701        C842   1.473   1_545  S
O702        C704   1.269       .  A
O703       Ni714   1.947       .  S
C704        O710   1.279       .  A
C704        C793   1.491       .  S
C705        C786   1.491       .  S
H706        O707   0.966       .  S
O707       Ni715   1.917       .  S
O707       Ni709   1.893       .  S
O707       Ni714   1.920       .  S
O708       Ni709   1.930       .  S
Ni709       O713   1.885       .  S
Ni709       O711   1.915       .  S
O710       Ni715   1.953       .  S
C712        O713   1.259       .  A
C712        C778   1.466       .  S
O717       Ni723   1.921   1_554  S
O718       Ni741   1.897       .  S
O718        C727   1.268       .  A
O719       Ni723   1.923       .  S
O719       Ni741   1.926       .  S
O719        H742   0.966       .  S
C720        O737   1.276       .  A
C720        O729   1.279       .  A
C720        C773   1.493       .  S
O721       Ni740   1.949       .  S
O722       Ni740   1.925       .  S
O722        C724   1.272       .  A
Ni723       O726   1.925       .  S
Ni723       O728   1.891       .  S
C724        O734   1.272       .  A
C724        C890   1.487       .  S
O725       Ni741   1.921       .  S
O725        C731   1.270       .  A
O726        C731   1.268       .  A
C727        C846   1.484       .  S
O728        C730   1.269       .  A
O729       Ni740   1.952       .  S
C730        O736   1.281       .  A
C730        C798   1.468       .  S
C731        C769   1.488       .  S
H732        O733   0.966       .  S
O733       Ni735   1.900       .  S
O733       Ni740   1.917       .  S
O734       Ni735   1.919       .  S
Ni735       O739   1.907       .  S
Ni735       O737   1.918       .  S
O736       Ni741   1.953       .  S
C738        O739   1.265       .  A
C738        C782   1.477       .  S
O743       Ni749   1.940       .  S
O743        C764   1.274       .  A
O744       Ni767   1.895       .  S
O744        C753   1.271       .  A
O745       Ni749   1.914       .  S
O745       Ni767   1.912       .  S
O745       Ni761   1.932       .  S
O745        H768   0.966       .  S
C746        O763   1.278       .  A
C746        O755   1.277       .  A
C746        C770   1.487       .  S
O747       Ni766   1.937       .  S
O747        C753   1.276       .  A
O748       Ni766   1.931       .  S
O748        C750   1.274       .  A
Ni749       O752   1.926       .  S
Ni749       O754   1.901       .  S
C750        O760   1.262       .  A
C750        C873   1.476       .  S
O751       Ni767   1.938       .  S
O751        C757   1.277       .  A
O752        C757   1.273       .  A
C753        C858   1.470       .  S
O754        C756   1.272       .  A
O755       Ni766   1.936       .  S
C756        O762   1.276       .  A
C756        C806   1.475       .  S
C757        C774   1.492       .  S
H758        O759   0.966       .  S
O759       Ni767   1.916       .  S
O759       Ni761   1.888       .  S
O759       Ni766   1.915       .  S
O760       Ni761   1.904       .  S
Ni761       O765   1.875       .  S
Ni761       O763   1.925       .  S
O762       Ni767   1.941       .  S
C764        O765   1.256       .  A
C764        C777   1.461       .  S
C769        C770   1.346       .  D
C769        H771   1.087       .  S
C770        H772   1.087       .  S
C773        C774   1.350       .  D
C773        H775   1.086       .  S
C774        H776   1.087       .  S
C777        C778   1.334       .  D
C777        H779   1.088       .  S
C778        H780   1.087       .  S
C781        C782   1.346       .  D
C781        H783   1.087       .  S
C782        H784   1.086       .  S
C785        C786   1.350       .  D
C785        H787   1.086       .  S
C786        H788   1.087       .  S
C789        C790   1.349       .  D
C789        H791   1.087       .  S
C790        H792   1.087       .  S
C793        C794   1.351       .  D
C793        H795   1.086       .  S
C794        H796   1.086       .  S
C797        C798   1.346       .  D
C797        H799   1.086       .  S
C798        H800   1.088       .  S
C801        C802   1.342       .  D
C801        H803   1.087       .  S
C802        H804   1.087       .  S
C805        C806   1.344       .  D
C805        H807   1.088       .  S
C806        H808   1.086       .  S
C809        C810   1.344       .  D
C809        H811   1.087       .  S
C810        H812   1.087       .  S
C813        C814   1.346       .  D
C813        H815   1.087       .  S
C814        H816   1.087       .  S
C817       C1730   1.356       .  D
C817        H819   1.087       .  S
C818       C1729   1.348       .  D
C818        H820   1.086       .  S
C821        C822   1.344       .  D
C821        H823   1.087       .  S
C822        H824   1.087       .  S
C825        C826   1.340       .  D
C825        H827   1.087       .  S
C826        H828   1.087       .  S
C829        C830   1.345       .  D
C829        H831   1.087       .  S
C830        H832   1.087       .  S
C833       C1746   1.346       .  D
C833        H835   1.087       .  S
C834       C1745   1.340       .  D
C834        H836   1.087       .  S
C837        C838   1.351       .  D
C837        H839   1.087       .  S
C838        H840   1.087       .  S
C841        C842   1.345       .  D
C841        H843   1.087       .  S
C842        H844   1.087       .  S
C845        C846   1.344       .  D
C845        H847   1.086       .  S
C846        H848   1.087       .  S
C849        C850   1.340       .  D
C849        H851   1.086       .  S
C850        H852   1.088       .  S
C853        C854   1.349       .  D
C853        H855   1.087       .  S
C854        H856   1.086       .  S
C857        C858   1.339       .  D
C857        H859   1.087       .  S
C858        H860   1.087       .  S
C861        C862   1.347       .  D
C861        H863   1.086       .  S
C862        H864   1.088       .  S
C865        C866   1.344       .  D
C865        H867   1.086       .  S
C866        H868   1.088       .  S
C869        C870   1.343       .  D
C869        H871   1.087       .  S
C870        H872   1.087       .  S
C873       C1786   1.338       .  D
C873        H875   1.087       .  S
C874       C1785   1.346   1_455  D
C874        H876   1.087       .  S
C877        C878   1.348   1_565  D
C877        H879   1.087   1_565  S
C878        H880   1.087       .  S
C881        C882   1.350       .  D
C881        H883   1.086       .  S
C882        H884   1.086       .  S
C885        C886   1.340       .  D
C885        H887   1.087       .  S
C886        H888   1.087       .  S
C889       C1802   1.338       .  D
C889        H891   1.087       .  S
C890       C1801   1.348       .  D
C890        H892   1.086       .  S
C893        C894   1.339       .  D
C893        H895   1.087       .  S
C894        H896   1.088       .  S
C897        C898   1.351       .  D
C897        H899   1.086       .  S
C898        H900   1.086       .  S
C901        C902   1.341       .  D
C901        H903   1.087       .  S
C902        H904   1.087       .  S
C905        C906   1.343       .  D
C905        H907   1.087       .  S
C906        H908   1.087       .  S
C909        C910   1.343       .  D
C909        H911   1.087       .  S
C910        H912   1.087       .  S
O913       Ni919   1.928       .  S
O913        C934   1.270       .  A
O914       Ni937   1.892       .  S
O914        C923   1.263       .  A
O915       Ni919   1.923       .  S
O915       Ni937   1.919       .  S
O915       Ni931   1.921       .  S
O915        H938   0.966       .  S
C916        O933   1.264   1_556  A
C916        O925   1.276   1_556  A
C916       C1817   1.461       .  S
O917       Ni936   1.940       .  S
O917        C923   1.272       .  A
O918       Ni936   1.908       .  S
O918        C920   1.268       .  A
Ni919       O922   1.937       .  S
Ni919       O924   1.896       .  S
C920        O930   1.281       .  A
C920       C1345   1.488       .  S
O921       Ni937   1.889       .  S
O921        C927   1.258       .  A
O922        C927   1.273       .  A
C923       C1350   1.472   1_565  S
O924        C926   1.270       .  A
O925       Ni936   1.932       .  S
C926        O932   1.278       .  A
C926       C1353   1.481       .  S
C927       C1366   1.467       .  S
H928        O929   0.967       .  S
O929       Ni937   1.888       .  S
O929       Ni931   1.903       .  S
O929       Ni936   1.920       .  S
O930       Ni931   1.953       .  S
Ni931       O935   1.917       .  S
Ni931       O933   1.888       .  S
O932       Ni937   1.956       .  S
C934        O935   1.271       .  A
C934       C1357   1.489       .  S
O939       Ni945   1.945       .  S
O939        C960   1.276       .  A
O940       Ni963   1.897       .  S
O940        C949   1.267       .  A
O941       Ni945   1.925       .  S
O941       Ni963   1.911       .  S
O941       Ni957   1.910       .  S
O941        H964   0.966       .  S
C942        O959   1.259       .  A
C942        O951   1.275       .  A
C942       C1365   1.463       .  S
O943       Ni962   1.929       .  S
O943        C949   1.272       .  A
O944       Ni962   1.905       .  S
O944        C946   1.267       .  A
Ni945       O948   1.951       .  S
Ni945       O950   1.910       .  S
C946        O956   1.279       .  A
C946       C1330   1.483       .  S
O947       Ni963   1.892       .  S
O947        C953   1.265       .  A
O948        C953   1.277       .  A
C949       C1333   1.466   1_565  S
O950        C952   1.270       .  A
O951       Ni962   1.947       .  S
C952        O958   1.277       .  A
C952       C1337   1.479       .  S
C953       C1362   1.472       .  S
H954        O955   0.966       .  S
O955       Ni963   1.903       .  S
O955       Ni957   1.894       .  S
O955       Ni962   1.930       .  S
O956       Ni957   1.949       .  S
Ni957       O961   1.889       .  S
Ni957       O959   1.882       .  S
O958       Ni963   1.953       .  S
C960        O961   1.260       .  A
C960       C1342   1.479       .  S
O965       Ni971   1.931       .  S
O965        C986   1.270       .  A
O966       Ni989   1.908       .  S
O966        C975   1.274       .  A
O967       Ni971   1.888       .  S
O967       Ni989   1.899       .  S
O967       Ni983   1.905       .  S
O967        H990   0.966       .  S
C968        O985   1.270       .  A
C968        O977   1.287       .  A
C968       C1325   1.488       .  S
O969       Ni988   1.980       .  S
O969        C975   1.288       .  A
O970       Ni988   1.931       .  S
O970        C972   1.276       .  A
Ni971       O974   1.911       .  S
Ni971       O976   1.894       .  S
C972        O982   1.269       .  A
C972       C1309   1.478       .  S
O973       Ni989   1.947       .  S
O973        C979   1.284       .  A
O974        C979   1.276       .  A
C975       C1313   1.495       .  S
O976        C978   1.267       .  A
O977       Ni988   1.973       .  S
C978        O984   1.276       .  A
C978       C1317   1.469       .  S
C979       C1321   1.479       .  S
H980        O981   0.966       .  S
O981       Ni989   1.914       .  S
O981       Ni983   1.899       .  S
O981       Ni988   1.909       .  S
O982       Ni983   1.923       .  S
Ni983       O987   1.906       .  S
Ni983       O985   1.896       .  S
O984       Ni989   1.944       .  S
C986        O987   1.263       .  A
C986       C1354   1.465       .  S
O991       Ni997   1.929       .  S
O991       C1012   1.272       .  A
O992      Ni1015   1.901       .  S
O992       C1001   1.270       .  A
O993       Ni997   1.902       .  S
O993      Ni1015   1.915       .  S
O993      Ni1009   1.930       .  S
O993       H1016   0.966       .  S
C994       O1011   1.279       .  A
C994       O1003   1.280       .  A
C994       C1322   1.480       .  S
O995      Ni1014   1.959       .  S
O995       C1001   1.282       .  A
O996      Ni1014   1.938       .  S
O996        C998   1.276       .  A
Ni997      O1000   1.921       .  S
Ni997      O1002   1.894       .  S
C998       O1008   1.267       .  A
C998       C1297   1.481       .  S
O999      Ni1015   1.923       .  S
O999       C1005   1.273       .  A
O1000      C1005   1.273       .  A
C1001      C1301   1.484       .  S
O1002      C1004   1.270       .  A
O1003     Ni1014   1.944       .  S
C1004      O1010   1.281       .  A
C1004      C1305   1.475       .  S
C1005      C1782   1.480       .  S
H1006      O1007   0.966       .  S
O1007     Ni1015   1.901       .  S
O1007     Ni1009   1.894       .  S
O1007     Ni1014   1.913       .  S
O1008     Ni1009   1.914       .  S
Ni1009     O1013   1.911       .  S
Ni1009     O1011   1.912       .  S
O1010     Ni1015   1.953       .  S
C1012      O1013   1.267       .  A
C1012      C1338   1.477       .  S
O1017     Ni1023   1.920       .  S
O1017      C1494   1.268       .  A
O1018     Ni1041   1.887       .  S
O1018      C1027   1.262       .  A
O1019     Ni1023   1.920       .  S
O1019     Ni1041   1.912       .  S
O1019     Ni1491   1.914       .  S
O1019      H1042   0.966       .  S
C1020      O1037   1.266       .  A
C1020      O1029   1.270       .  A
C1020      C1286   1.471       .  S
O1021     Ni1040   1.929       .  S
O1021      C1483   1.270   1_554  A
O1022     Ni1040   1.913       .  S
O1022      C1024   1.274       .  A
Ni1023     O1026   1.922       .  S
Ni1023     O1028   1.887       .  S
C1024      O1034   1.278       .  A
C1024      C1289   1.469       .  S
O1025     Ni1041   1.886       .  S
O1025      C1031   1.258       .  A
O1026      C1031   1.270       .  A
C1027      O1477   1.268       .  A
C1027      C1293   1.462       .  S
O1028      C1030   1.270       .  A
O1029     Ni1040   1.919       .  S
C1030      O1036   1.279       .  A
C1030      C1306   1.494       .  S
C1031      C1282   1.459       .  S
H1032      O1033   0.966       .  S
O1033     Ni1497   1.915   1_554  S
O1033     Ni1035   1.915       .  S
O1033     Ni1040   1.929       .  S
O1034     Ni1035   1.937       .  S
Ni1035     O1039   1.922       .  S
Ni1035     O1037   1.906       .  S
Ni1035     O1475   1.916   1_554  S
O1036     Ni1041   1.964       .  S
C1038      O1473   1.270   1_554  A
C1038      O1039   1.271       .  A
C1038      C1358   1.487       .  S
Ni1041     O1489   1.907       .  S
O1043     Ni1049   1.938       .  S
O1043      C1064   1.273       .  A
O1044     Ni1067   1.911       .  S
O1044      C1053   1.273       .  A
O1045     Ni1049   1.919       .  S
O1045     Ni1067   1.922       .  S
O1045     Ni1061   1.924       .  S
O1045      H1068   0.966       .  S
C1046      O1063   1.262       .  A
C1046      O1055   1.275       .  A
C1046      C1281   1.459       .  S
O1047     Ni1066   1.931       .  S
O1047      C1053   1.274       .  A
O1048     Ni1066   1.920       .  S
O1048      C1050   1.273       .  A
Ni1049     O1052   1.928       .  S
Ni1049     O1054   1.881       .  S
C1050      O1060   1.270       .  A
C1050      C1273   1.470       .  S
O1051     Ni1067   1.893       .  S
O1051      C1057   1.263       .  A
O1052      C1057   1.269       .  A
C1053      C1278   1.475       .  S
O1054      C1056   1.273       .  A
O1055     Ni1066   1.937       .  S
C1056      O1062   1.283       .  A
C1056      C1318   1.488       .  S
C1057      C1285   1.464       .  S
H1058      O1059   0.966       .  S
O1059     Ni1067   1.897       .  S
O1059     Ni1061   1.888       .  S
O1059     Ni1066   1.921       .  S
O1060     Ni1061   1.927       .  S
Ni1061     O1065   1.888       .  S
Ni1061     O1063   1.886       .  S
O1062     Ni1067   1.968       .  S
C1064      O1065   1.258       .  A
C1064      C1341   1.479       .  S
O1069     Ni1075   1.918       .  S
O1069      C1090   1.268       .  A
O1070     Ni1093   1.893       .  S
O1070      C1079   1.268       .  A
O1071     Ni1075   1.897       .  S
O1071     Ni1093   1.895       .  S
O1071     Ni1087   1.895       .  S
O1071      H1094   0.966       .  S
C1072      O1089   1.265       .  A
C1072      O1081   1.276       .  A
C1072      C1269   1.467       .  S
O1073     Ni1092   1.944       .  S
O1073      C1079   1.275       .  A
O1074     Ni1092   1.907       .  S
O1074      C1076   1.274       .  A
Ni1075     O1078   1.899       .  S
Ni1075     O1080   1.906       .  S
C1076      O1086   1.278       .  A
C1076      C1349   1.469       .  S
O1077     Ni1093   1.924       .  S
O1077      C1083   1.277       .  A
O1078      C1083   1.274       .  A
C1079      C1277   1.478       .  S
O1080      C1082   1.269       .  A
O1081     Ni1092   1.931       .  S
C1082      O1088   1.266       .  A
C1082      C1261   1.473       .  S
C1083      C1265   1.464       .  S
H1084      O1085   0.966       .  S
O1085     Ni1093   1.914       .  S
O1085     Ni1087   1.912       .  S
O1085     Ni1092   1.907       .  S
O1086     Ni1087   1.939       .  S
Ni1087     O1091   1.923       .  S
Ni1087     O1089   1.891       .  S
O1088     Ni1093   1.923       .  S
C1090      O1091   1.268       .  A
C1090      C1257   1.468       .  S
O1095     Ni1101   1.926       .  S
O1095      C1116   1.273       .  A
O1096     Ni1119   1.870       .  S
O1096      C1105   1.260       .  A
O1097     Ni1101   1.895       .  S
O1097     Ni1119   1.890       .  S
O1097     Ni1113   1.902       .  S
O1097      H1120   0.966       .  S
C1098      O1115   1.272       .  A
C1098      O1107   1.276       .  A
C1098      C1266   1.463       .  S
O1099     Ni1118   1.946       .  S
O1099      C1105   1.274       .  A
O1100     Ni1118   1.906       .  S
O1100      C1102   1.273       .  A
Ni1101     O1104   1.915       .  S
Ni1101     O1106   1.914       .  S
C1102      O1112   1.276       .  A
C1102      C1334   1.468       .  S
O1103     Ni1119   1.908       .  S
O1103      C1109   1.269       .  A
O1104      C1109   1.277       .  A
C1105      C1294   1.467       .  S
O1106      C1108   1.270       .  A
O1107     Ni1118   1.927       .  S
C1108      O1114   1.264       .  A
C1108      C1253   1.472       .  S
C1109      C1726   1.465       .  S
H1110      O1111   0.966       .  S
O1111     Ni1119   1.897       .  S
O1111     Ni1113   1.909       .  S
O1111     Ni1118   1.904       .  S
O1112     Ni1113   1.934       .  S
Ni1113     O1117   1.932       .  S
Ni1113     O1115   1.897       .  S
O1114     Ni1119   1.916       .  S
C1116      O1117   1.273       .  A
C1116      C1250   1.477       .  S
O1121     Ni1127   1.927       .  S
O1121      C1142   1.270       .  A
O1122     Ni1145   1.911       .  S
O1122      C1131   1.274       .  A
O1123     Ni1127   1.911       .  S
O1123     Ni1145   1.919       .  S
O1123     Ni1139   1.926       .  S
O1123      H1146   0.966       .  S
C1124      O1141   1.274   1_556  A
C1124      O1133   1.281   1_556  A
C1124      C1697   1.488       .  S
O1125     Ni1144   1.946       .  S
O1125      C1131   1.277       .  A
O1126     Ni1144   1.927       .  S
O1126      C1128   1.270       .  A
Ni1127     O1130   1.917       .  S
Ni1127     O1132   1.892       .  S
C1128      O1138   1.266       .  A
C1128      C1290   1.486   1_655  S
O1129     Ni1145   1.938       .  S
O1129      C1135   1.278       .  A
O1130      C1135   1.271       .  A
C1131      C1310   1.485   1_545  S
O1132      C1134   1.271       .  A
O1133     Ni1144   1.953       .  S
C1134      O1140   1.279       .  A
C1134      C1258   1.490       .  S
C1135      C1246   1.487       .  S
H1136      O1137   0.966       .  S
O1137     Ni1145   1.914       .  S
O1137     Ni1139   1.895       .  S
O1137     Ni1144   1.919       .  S
O1138     Ni1139   1.906       .  S
Ni1139     O1143   1.889       .  S
Ni1139     O1141   1.911       .  S
O1140     Ni1145   1.951       .  S
C1142      O1143   1.258       .  A
C1142      C1237   1.467       .  S
O1147     Ni1153   1.935       .  S
O1147      C1168   1.274       .  A
O1148     Ni1171   1.918       .  S
O1148      C1157   1.275       .  A
O1149     Ni1153   1.905       .  S
O1149     Ni1171   1.918       .  S
O1149     Ni1165   1.931       .  S
O1149      H1172   0.966       .  S
C1150      O1167   1.281       .  A
C1150      O1159   1.280       .  A
C1150      C1245   1.489       .  S
O1151     Ni1170   1.941       .  S
O1151      C1157   1.275       .  A
O1152     Ni1170   1.925       .  S
O1152      C1154   1.271       .  A
Ni1153     O1156   1.929       .  S
Ni1153     O1158   1.898       .  S
C1154      O1164   1.272       .  A
C1154      C1274   1.491   1_655  S
O1155     Ni1171   1.933       .  S
O1155      C1161   1.277       .  A
O1156      C1161   1.275       .  A
C1157      C1298   1.488   1_545  S
O1158      C1160   1.272       .  A
O1159     Ni1170   1.941       .  S
C1160      O1166   1.282       .  A
C1160      C1249   1.497       .  S
C1161      C1242   1.490       .  S
H1162      O1163   0.966       .  S
O1163     Ni1171   1.912       .  S
O1163     Ni1165   1.898       .  S
O1163     Ni1170   1.913       .  S
O1164     Ni1165   1.926       .  S
Ni1165     O1169   1.913       .  S
Ni1165     O1167   1.926       .  S
O1166     Ni1171   1.958       .  S
C1168      O1169   1.269       .  A
C1168      C1234   1.485       .  S
O1173     Ni1179   1.926       .  S
O1173      C1650   1.270       .  A
O1174     Ni1197   1.912       .  S
O1174      C1183   1.272       .  A
O1175     Ni1179   1.920       .  S
O1175     Ni1197   1.927       .  S
O1175     Ni1647   1.956       .  S
O1175      H1198   0.966       .  S
C1176      O1193   1.279       .  A
C1176      O1185   1.280       .  A
C1176      C1229   1.488       .  S
O1177     Ni1196   1.948   1_556  S
O1177      C1639   1.276       .  A
O1178     Ni1196   1.921       .  S
O1178      C1180   1.271       .  A
Ni1179     O1182   1.935       .  S
Ni1179     O1184   1.882       .  S
C1180      O1190   1.264       .  A
C1180      C1346   1.472   1_655  S
O1181     Ni1197   1.924       .  S
O1181      C1187   1.269       .  A
O1182      C1187   1.269       .  A
C1183      O1633   1.278       .  A
C1183      C1302   1.482       .  S
O1184      C1186   1.269       .  A
O1185     Ni1196   1.943       .  S
C1186      O1192   1.285       .  A
C1186      C1254   1.459       .  S
C1187      C1225   1.493       .  S
H1188      O1189   0.966       .  S
O1189     Ni1653   1.898   1_554  S
O1189     Ni1191   1.884       .  S
O1189     Ni1196   1.915       .  S
O1190     Ni1191   1.908       .  S
Ni1191     O1195   1.889       .  S
Ni1191     O1193   1.922       .  S
Ni1191     O1631   1.950   1_554  S
O1192     Ni1197   1.959       .  S
C1194      O1629   1.270       .  A
C1194      O1195   1.260       .  A
C1194      C1238   1.468       .  S
Ni1197     O1645   1.899       .  S
O1199     Ni1205   1.928       .  S
O1199      C1220   1.270       .  A
O1200     Ni1223   1.927       .  S
O1200      C1209   1.274       .  A
O1201     Ni1205   1.925       .  S
O1201     Ni1223   1.936       .  S
O1201     Ni1217   1.947       .  S
O1201      H1224   0.966       .  S
C1202      O1219   1.278       .  A
C1202      O1211   1.280       .  A
C1202      C1226   1.494       .  S
O1203     Ni1222   1.958       .  S
O1203      C1209   1.279       .  A
O1204     Ni1222   1.922       .  S
O1204      C1206   1.273       .  A
Ni1205     O1208   1.929       .  S
Ni1205     O1210   1.886       .  S
C1206      O1216   1.266       .  A
C1206      C1329   1.472       .  S
O1207     Ni1223   1.920       .  S
O1207      C1213   1.269       .  A
O1208      C1213   1.269       .  A
C1209      C1314   1.498       .  S
O1210      C1212   1.269       .  A
O1211     Ni1222   1.948       .  S
C1212      O1218   1.282       .  A
C1212      C1262   1.460       .  S
C1213      C1230   1.487       .  S
H1214      O1215   0.966       .  S
O1215     Ni1223   1.904       .  S
O1215     Ni1217   1.902       .  S
O1215     Ni1222   1.919       .  S
O1216     Ni1217   1.912       .  S
Ni1217     O1221   1.911       .  S
Ni1217     O1219   1.924       .  S
O1218     Ni1223   1.953       .  S
C1220      O1221   1.266       .  A
C1220      C1233   1.485       .  S
C1225      C1226   1.350       .  D
C1225      H1227   1.087       .  S
C1226      H1228   1.087       .  S
C1229      C1230   1.347       .  D
C1229      H1231   1.087       .  S
C1230      H1232   1.087       .  S
C1233      C1234   1.350       .  D
C1233      H1235   1.087       .  S
C1234      H1236   1.086       .  S
C1237      C1238   1.339       .  D
C1237      H1239   1.087       .  S
C1238      H1240   1.087       .  S
C1241      C1580   1.489       .  S
C1241      C1242   1.349       .  D
C1241      H1243   1.086       .  S
C1242      H1244   1.087       .  S
C1245      C1246   1.345       .  D
C1245      H1247   1.087       .  S
C1246      H1248   1.087       .  S
C1249      C1250   1.354       .  D
C1249      H1251   1.086       .  S
C1250      H1252   1.087       .  S
C1253      C1254   1.337       .  D
C1253      H1255   1.087       .  S
C1254      H1256   1.088       .  S
C1257      C1258   1.350       .  D
C1257      H1259   1.087       .  S
C1258      H1260   1.086       .  S
C1261      C1262   1.338       .  D
C1261      H1263   1.087       .  S
C1262      H1264   1.088       .  S
C1265      C1266   1.346       .  D
C1265      H1267   1.087       .  S
C1266      H1268   1.087       .  S
C1269      C1270   1.337       .  D
C1269      H1271   1.087       .  S
C1270      C1565   1.457   1_554  S
C1270      H1272   1.087       .  S
C1273      H1275   1.087       .  S
C1274      H1276   1.086       .  S
C1277      C1278   1.342       .  D
C1277      H1279   1.086       .  S
C1278      H1280   1.088       .  S
C1281      C1282   1.339       .  D
C1281      H1283   1.088       .  S
C1282      H1284   1.087       .  S
C1285      C1286   1.346       .  D
C1285      H1287   1.087       .  S
C1286      H1288   1.087       .  S
C1289      H1291   1.087       .  S
C1290      H1292   1.086       .  S
C1293      C1294   1.344       .  D
C1293      H1295   1.087       .  S
C1294      H1296   1.087       .  S
C1297      C1298   1.342       .  D
C1297      H1299   1.087       .  S
C1298      H1300   1.087       .  S
C1301      C1302   1.345       .  D
C1301      H1303   1.087       .  S
C1302      H1304   1.086       .  S
C1305      C1306   1.349       .  D
C1305      H1307   1.087       .  S
C1306      H1308   1.086       .  S
C1309      C1310   1.342       .  D
C1309      H1311   1.087       .  S
C1310      H1312   1.087       .  S
C1313      C1314   1.350       .  D
C1313      H1315   1.087       .  S
C1314      H1316   1.086       .  S
C1317      C1318   1.347       .  D
C1317      H1319   1.088       .  S
C1318      H1320   1.086       .  S
C1321      C1322   1.342       .  D
C1321      H1323   1.088       .  S
C1322      H1324   1.086       .  S
C1325      C1326   1.343       .  D
C1325      H1327   1.087       .  S
C1326      C1461   1.485   1_554  S
C1326      H1328   1.087       .  S
C1329      H1331   1.087   1_655  S
C1330      H1332   1.086       .  S
C1333      C1334   1.342       .  D
C1333      H1335   1.087       .  S
C1334      H1336   1.087       .  S
C1337      C1338   1.344       .  D
C1337      H1339   1.087       .  S
C1338      H1340   1.086       .  S
C1341      C1342   1.340       .  D
C1341      H1343   1.087       .  S
C1342      H1344   1.087       .  S
C1345      H1347   1.086       .  S
C1346      H1348   1.087       .  S
C1349      C1350   1.345       .  D
C1349      H1351   1.087       .  S
C1350      H1352   1.087       .  S
C1353      C1354   1.343       .  D
C1353      H1355   1.087       .  S
C1354      H1356   1.086       .  S
C1357      C1358   1.346       .  D
C1357      H1359   1.087       .  S
C1358      H1360   1.087       .  S
C1361      C1372   1.477       .  S
C1361      C1362   1.344       .  D
C1361      H1363   1.087       .  S
C1362      H1364   1.087       .  S
C1365      C1366   1.338       .  D
C1365      H1367   1.088       .  S
C1366      H1368   1.087       .  S
O1369     Ni1375   1.919       .  S
O1369      C1390   1.268       .  A
O1370     Ni1393   1.898       .  S
O1370      C1379   1.265       .  A
O1371     Ni1375   1.920       .  S
O1371     Ni1393   1.917       .  S
O1371     Ni1387   1.923       .  S
O1371      H1394   0.966       .  S
C1372      O1389   1.269       .  A
C1372      O1381   1.277       .  A
O1373     Ni1392   1.955       .  S
O1373      C1379   1.277       .  A
O1374     Ni1392   1.923       .  S
O1374      C1376   1.275       .  A
Ni1375     O1378   1.928       .  S
Ni1375     O1380   1.902       .  S
C1376      O1386   1.274       .  A
C1376      C1801   1.472       .  S
O1377     Ni1393   1.893       .  S
O1377      C1383   1.262       .  A
O1378      C1383   1.271       .  A
C1379      C1806   1.490       .  S
O1380      C1382   1.270       .  A
O1381     Ni1392   1.939       .  S
C1382      O1388   1.275       .  A
C1382      C1809   1.469       .  S
C1383      C1822   1.464       .  S
H1384      O1385   0.967       .  S
O1385     Ni1393   1.901       .  S
O1385     Ni1387   1.911       .  S
O1385     Ni1392   1.928       .  S
O1386     Ni1387   1.928       .  S
Ni1387     O1391   1.923       .  S
Ni1387     O1389   1.904       .  S
O1388     Ni1393   1.946       .  S
C1390      O1391   1.272       .  A
C1390      C1813   1.486       .  S
O1395     Ni1401   1.924       .  S
O1395      C1416   1.269       .  A
O1396     Ni1419   1.906       .  S
O1396      C1405   1.266       .  A
O1397     Ni1401   1.919       .  S
O1397     Ni1419   1.912       .  S
O1397     Ni1413   1.906       .  S
O1397      H1420   0.966       .  S
C1398      O1415   1.263       .  A
C1398      O1407   1.271       .  A
C1398      C1821   1.463       .  S
O1399     Ni1418   1.925       .  S
O1399      C1405   1.268       .  A
O1400     Ni1418   1.897       .  S
O1400      C1402   1.266       .  A
Ni1401     O1404   1.934       .  S
Ni1401     O1406   1.909       .  S
C1402      O1412   1.283       .  A
C1402      C1786   1.481       .  S
O1403     Ni1419   1.883       .  S
O1403      C1409   1.261       .  A
O1404      C1409   1.274       .  A
C1405      C1789   1.475   1_565  S
O1406      C1408   1.268       .  A
O1407     Ni1418   1.927       .  S
C1408      O1414   1.278       .  A
C1408      C1793   1.482       .  S
C1409      C1818   1.460       .  S
H1410      O1411   0.966       .  S
O1411     Ni1419   1.907       .  S
O1411     Ni1413   1.919       .  S
O1411     Ni1418   1.930       .  S
O1412     Ni1413   1.960       .  S
Ni1413     O1417   1.920       .  S
Ni1413     O1415   1.892       .  S
O1414     Ni1419   1.962       .  S
C1416      O1417   1.272       .  A
C1416      C1798   1.483       .  S
O1421     Ni1427   1.924       .  S
O1421      C1442   1.270       .  A
O1422     Ni1445   1.902       .  S
O1422      C1431   1.269       .  A
O1423     Ni1427   1.912       .  S
O1423     Ni1445   1.921       .  S
O1423     Ni1439   1.930       .  S
O1423      H1446   0.966       .  S
C1424      O1441   1.276       .  A
C1424      O1433   1.279       .  A
C1424      C1781   1.481       .  S
O1425     Ni1444   1.942       .  S
O1425      C1431   1.275       .  A
O1426     Ni1444   1.920       .  S
O1426      C1428   1.271       .  A
Ni1427     O1430   1.920       .  S
Ni1427     O1432   1.896       .  S
C1428      O1438   1.267       .  A
C1428      C1765   1.474       .  S
O1429     Ni1445   1.923       .  S
O1429      C1435   1.274       .  A
O1430      C1435   1.271       .  A
C1431      C1769   1.469       .  S
O1432      C1434   1.269       .  A
O1433     Ni1444   1.940       .  S
C1434      O1440   1.276       .  A
C1434      C1773   1.466       .  S
C1435      C1777   1.482       .  S
H1436      O1437   0.966       .  S
O1437     Ni1445   1.903       .  S
O1437     Ni1439   1.892       .  S
O1437     Ni1444   1.913       .  S
O1438     Ni1439   1.914       .  S
Ni1439     O1443   1.899       .  S
Ni1439     O1441   1.912       .  S
O1440     Ni1445   1.942       .  S
C1442      O1443   1.262       .  A
C1442      C1810   1.466       .  S
O1447     Ni1453   1.941       .  S
O1447      C1468   1.275       .  A
O1448     Ni1471   1.893       .  S
O1448      C1457   1.265       .  A
O1449     Ni1453   1.922       .  S
O1449     Ni1471   1.919       .  S
O1449     Ni1465   1.939       .  S
O1449      H1472   0.966       .  S
C1450      O1467   1.281       .  A
C1450      O1459   1.279       .  A
C1450      C1778   1.481       .  S
O1451     Ni1470   1.950       .  S
O1451      C1457   1.277       .  A
O1452     Ni1470   1.923       .  S
O1452      C1454   1.271       .  A
Ni1453     O1456   1.947       .  S
Ni1453     O1458   1.890       .  S
C1454      O1464   1.274       .  A
C1454      C1753   1.489       .  S
O1455     Ni1471   1.904       .  S
O1455      C1461   1.266       .  A
O1456      C1461   1.278       .  A
C1457      C1757   1.470       .  S
O1458      C1460   1.267       .  A
O1459     Ni1470   1.933       .  S
C1460      O1466   1.279       .  A
C1460      C1761   1.471       .  S
H1462      O1463   0.966       .  S
O1463     Ni1471   1.891       .  S
O1463     Ni1465   1.889       .  S
O1463     Ni1470   1.910       .  S
O1464     Ni1465   1.931       .  S
Ni1465     O1469   1.906       .  S
Ni1465     O1467   1.923       .  S
O1466     Ni1471   1.952       .  S
C1468      O1469   1.267       .  A
C1468      C1794   1.483       .  S
O1473     Ni1479   1.927       .  S
O1474     Ni1497   1.901       .  S
O1474      C1483   1.266       .  A
O1475     Ni1479   1.917       .  S
O1475     Ni1497   1.913       .  S
O1475      H1498   0.966       .  S
C1476      O1493   1.264       .  A
C1476      O1485   1.270       .  A
C1476      C1742   1.459       .  S
O1477     Ni1496   1.923       .  S
O1478     Ni1496   1.906       .  S
O1478      C1480   1.271       .  A
Ni1479     O1482   1.925       .  S
Ni1479     O1484   1.890       .  S
C1480      O1490   1.287       .  A
C1480      C1745   1.486       .  S
O1481     Ni1497   1.894       .  S
O1481      C1487   1.262       .  A
O1482      C1487   1.271       .  A
C1483      C1749   1.473       .  S
O1484      C1486   1.271       .  A
O1485     Ni1496   1.921       .  S
C1486      O1492   1.279       .  A
C1486      C1762   1.488       .  S
C1487      C1738   1.465       .  S
H1488      O1489   0.966       .  S
O1489     Ni1491   1.908       .  S
O1489     Ni1496   1.922       .  S
O1490     Ni1491   1.965       .  S
Ni1491     O1495   1.921       .  S
Ni1491     O1493   1.893       .  S
O1492     Ni1497   1.959       .  S
C1494      O1495   1.273       .  A
C1494      C1814   1.484       .  S
O1499     Ni1505   1.918       .  S
O1499      C1520   1.265       .  A
O1500     Ni1523   1.918       .  S
O1500      C1509   1.272       .  A
O1501     Ni1505   1.922       .  S
O1501     Ni1523   1.929       .  S
O1501     Ni1517   1.922       .  S
O1501      H1524   0.966       .  S
C1502      O1519   1.265       .  A
C1502      O1511   1.275       .  A
C1502      C1737   1.466       .  S
O1503     Ni1522   1.950       .  S
O1503      C1509   1.278       .  A
O1504     Ni1522   1.927       .  S
O1504      C1506   1.277       .  A
Ni1505     O1508   1.904       .  S
Ni1505     O1510   1.886       .  S
C1506      O1516   1.276       .  A
C1506      C1729   1.480       .  S
O1507     Ni1523   1.897       .  S
O1507      C1513   1.262       .  A
O1508      C1513   1.266       .  A
C1509      C1734   1.495       .  S
O1510      C1512   1.272       .  A
O1511     Ni1522   1.936       .  S
C1512      O1518   1.281       .  A
C1512      C1774   1.479       .  S
C1513      C1741   1.460       .  S
H1514      O1515   0.966       .  S
O1515     Ni1523   1.902       .  S
O1515     Ni1517   1.905       .  S
O1515     Ni1522   1.922       .  S
O1516     Ni1517   1.937       .  S
Ni1517     O1521   1.917       .  S
Ni1517     O1519   1.893       .  S
O1518     Ni1523   1.959       .  S
C1520      O1521   1.269       .  A
C1520      C1797   1.484       .  S
O1525     Ni1531   1.929       .  S
O1525      C1546   1.269       .  A
O1526     Ni1549   1.920       .  S
O1526      C1535   1.275       .  A
O1527     Ni1531   1.903       .  S
O1527     Ni1549   1.907       .  S
O1527     Ni1543   1.890       .  S
O1527      H1550   0.966       .  S
C1528      O1545   1.262       .  A
C1528      O1537   1.279       .  A
C1528      C1725   1.462       .  S
O1529     Ni1548   1.955       .  S
O1529      C1535   1.281       .  A
O1530     Ni1548   1.920       .  S
O1530      C1532   1.274       .  A
Ni1531     O1534   1.903       .  S
Ni1531     O1536   1.908       .  S
C1532      O1542   1.277       .  A
C1532      C1805   1.483       .  S
O1533     Ni1549   1.914       .  S
O1533      C1539   1.279       .  A
O1534      C1539   1.272       .  A
C1535      C1733   1.496       .  S
O1536      C1538   1.272       .  A
O1537     Ni1548   1.945       .  S
C1538      O1544   1.273       .  A
C1538      C1717   1.490       .  S
C1539      C1721   1.457       .  S
H1540      O1541   0.966       .  S
O1541     Ni1549   1.912       .  S
O1541     Ni1543   1.907       .  S
O1541     Ni1548   1.912       .  S
O1542     Ni1543   1.940       .  S
Ni1543     O1547   1.916       .  S
Ni1543     O1545   1.874       .  S
O1544     Ni1549   1.937       .  S
C1546      O1547   1.265       .  A
C1546      C1713   1.473       .  S
O1551     Ni1557   1.931       .  S
O1551      C1572   1.273       .  A
O1552     Ni1575   1.891       .  S
O1552      C1561   1.265       .  A
O1553     Ni1557   1.900       .  S
O1553     Ni1575   1.900       .  S
O1553     Ni1569   1.911       .  S
O1553      H1576   0.966       .  S
C1554      O1571   1.277       .  A
C1554      O1563   1.272       .  A
C1554      C1722   1.451       .  S
O1555     Ni1574   1.943       .  S
O1555      C1561   1.275       .  A
O1556     Ni1574   1.924       .  S
O1556      C1558   1.275       .  A
Ni1557     O1560   1.922       .  S
Ni1557     O1562   1.901       .  S
C1558      O1568   1.269       .  A
C1558      C1790   1.469       .  S
O1559     Ni1575   1.894       .  S
O1559      C1565   1.267       .  A
O1560      C1565   1.276       .  A
C1561      C1750   1.476       .  S
O1562      C1564   1.271       .  A
O1563     Ni1574   1.916       .  S
C1564      O1570   1.272       .  A
C1564      C1709   1.477       .  S
H1566      O1567   0.966       .  S
O1567     Ni1575   1.890       .  S
O1567     Ni1569   1.905       .  S
O1567     Ni1574   1.910       .  S
O1568     Ni1569   1.918       .  S
Ni1569     O1573   1.927       .  S
Ni1569     O1571   1.900       .  S
O1570     Ni1575   1.933       .  S
C1572      O1573   1.272       .  A
C1572      C1706   1.477       .  S
O1577     Ni1583   1.934       .  S
O1577      C1598   1.273       .  A
O1578     Ni1601   1.905       .  S
O1578      C1587   1.270       .  A
O1579     Ni1583   1.914       .  S
O1579     Ni1601   1.918       .  S
O1579     Ni1595   1.930       .  S
O1579      H1602   0.966       .  S
C1580      O1597   1.277       .  A
C1580      O1589   1.278       .  A
O1581     Ni1600   1.938       .  S
O1581      C1587   1.272       .  A
O1582     Ni1600   1.920       .  S
O1582      C1584   1.269       .  A
Ni1583     O1586   1.926       .  S
Ni1583     O1588   1.903       .  S
C1584      O1594   1.270       .  A
C1584      C1746   1.485   1_655  S
O1585     Ni1601   1.933       .  S
O1585      C1591   1.277       .  A
O1586      C1591   1.273       .  A
C1587      C1766   1.479   1_545  S
O1588      C1590   1.272       .  A
O1589     Ni1600   1.942       .  S
C1590      O1596   1.278       .  A
C1590      C1714   1.490       .  S
C1591      C1702   1.489       .  S
H1592      O1593   0.966       .  S
O1593     Ni1601   1.919       .  S
O1593     Ni1595   1.901       .  S
O1593     Ni1600   1.925       .  S
O1594     Ni1595   1.916       .  S
Ni1595     O1599   1.900       .  S
Ni1595     O1597   1.922       .  S
O1596     Ni1601   1.945       .  S
C1598      O1599   1.263       .  A
C1598      C1693   1.477       .  S
O1603     Ni1609   1.929       .  S
O1603      C1624   1.272       .  A
O1604     Ni1627   1.890       .  S
O1604      C1613   1.264       .  A
O1605     Ni1609   1.927       .  S
O1605     Ni1627   1.918       .  S
O1605     Ni1621   1.939       .  S
O1605      H1628   0.966       .  S
C1606      O1623   1.279       .  A
C1606      O1615   1.279       .  A
C1606      C1701   1.490       .  S
O1607     Ni1626   1.964       .  S
O1607      C1613   1.281       .  A
O1608     Ni1626   1.939       .  S
O1608      C1610   1.277       .  A
Ni1609     O1612   1.936       .  S
Ni1609     O1614   1.906       .  S
C1610      O1620   1.271       .  A
C1610      C1730   1.497   1_655  S
O1611     Ni1627   1.914       .  S
O1611      C1617   1.269       .  A
O1612      C1617   1.273       .  A
C1613      C1754   1.484   1_545  S
O1614      C1616   1.272       .  A
O1615     Ni1626   1.946       .  S
C1616      O1622   1.279       .  A
C1616      C1705   1.491       .  S
C1617      C1698   1.489       .  S
H1618      O1619   0.966       .  S
O1619     Ni1627   1.905       .  S
O1619     Ni1621   1.898       .  S
O1619     Ni1626   1.926       .  S
O1620     Ni1621   1.921       .  S
Ni1621     O1625   1.904       .  S
Ni1621     O1623   1.922       .  S
O1622     Ni1627   1.948       .  S
C1624      O1625   1.266       .  A
C1624      C1690   1.477       .  S
O1629     Ni1635   1.920   1_554  S
O1630     Ni1653   1.896       .  S
O1630      C1639   1.269       .  A
O1631     Ni1635   1.922       .  S
O1631     Ni1653   1.925       .  S
O1631      H1654   0.966       .  S
C1632      O1649   1.280       .  A
C1632      O1641   1.280       .  A
C1632      C1685   1.490       .  S
O1633     Ni1652   1.952       .  S
O1634     Ni1652   1.927       .  S
O1634      C1636   1.273       .  A
Ni1635     O1638   1.926       .  S
Ni1635     O1640   1.890       .  S
C1636      O1646   1.263       .  A
C1636      C1802   1.467   1_655  S
O1637     Ni1653   1.918       .  S
O1637      C1643   1.269       .  A
O1638      C1643   1.268       .  A
C1639      C1758   1.473       .  S
O1640      C1642   1.270       .  A
O1641     Ni1652   1.946       .  S
C1642      O1648   1.281       .  A
C1642      C1710   1.463       .  S
C1643      C1681   1.487       .  S
H1644      O1645   0.966       .  S
O1645     Ni1647   1.887       .  S
O1645     Ni1652   1.915       .  S
O1646     Ni1647   1.899       .  S
Ni1647     O1651   1.899       .  S
Ni1647     O1649   1.924       .  S
O1648     Ni1653   1.951       .  S
C1650      O1651   1.263       .  A
C1650      C1694   1.477       .  S
O1655     Ni1661   1.926       .  S
O1655      C1676   1.271       .  A
O1656     Ni1679   1.900       .  S
O1656      C1665   1.270       .  A
O1657     Ni1661   1.908       .  S
O1657     Ni1679   1.915       .  S
O1657     Ni1673   1.932       .  S
O1657      H1680   0.966       .  S
C1658      O1675   1.279       .  A
C1658      O1667   1.281       .  A
C1658      C1682   1.488       .  S
O1659     Ni1678   1.945       .  S
O1659      C1665   1.278       .  A
O1660     Ni1678   1.922       .  S
O1660      C1662   1.269       .  A
Ni1661     O1664   1.922       .  S
Ni1661     O1666   1.894       .  S
C1662      O1672   1.273       .  A
C1662      C1785   1.490       .  S
O1663     Ni1679   1.942       .  S
O1663      C1669   1.278       .  A
O1664      C1669   1.273       .  A
C1665      C1770   1.471       .  S
O1666      C1668   1.268       .  A
O1667     Ni1678   1.946       .  S
C1668      O1674   1.279       .  A
C1668      C1718   1.474       .  S
C1669      C1686   1.490       .  S
H1670      O1671   0.966       .  S
O1671     Ni1679   1.910       .  S
O1671     Ni1673   1.890       .  S
O1671     Ni1678   1.910       .  S
O1672     Ni1673   1.923       .  S
Ni1673     O1677   1.906       .  S
Ni1673     O1675   1.920       .  S
O1674     Ni1679   1.949       .  S
C1676      O1677   1.266       .  A
C1676      C1689   1.478       .  S
C1681      C1682   1.347       .  D
C1681      H1683   1.087       .  S
C1682      H1684   1.087       .  S
C1685      C1686   1.347       .  D
C1685      H1687   1.086       .  S
C1686      H1688   1.087       .  S
C1689      C1690   1.347       .  D
C1689      H1691   1.087       .  S
C1690      H1692   1.087       .  S
C1693      C1694   1.344       .  D
C1693      H1695   1.087       .  S
C1694      H1696   1.087       .  S
C1697      C1698   1.351       .  D
C1697      H1699   1.086       .  S
C1698      H1700   1.087       .  S
C1701      C1702   1.346       .  D
C1701      H1703   1.087       .  S
C1702      H1704   1.087       .  S
C1705      C1706   1.349       .  D
C1705      H1707   1.087       .  S
C1706      H1708   1.086       .  S
C1709      C1710   1.343       .  D
C1709      H1711   1.086       .  S
C1710      H1712   1.088       .  S
C1713      C1714   1.348       .  D
C1713      H1715   1.086       .  S
C1714      H1716   1.087       .  S
C1717      C1718   1.345       .  D
C1717      H1719   1.086       .  S
C1718      H1720   1.087       .  S
C1721      C1722   1.333       .  D
C1721      H1723   1.088       .  S
C1722      H1724   1.087       .  S
C1725      C1726   1.334       .  D
C1725      H1727   1.088       .  S
C1726      H1728   1.087       .  S
C1729      H1731   1.087       .  S
C1730      H1732   1.086       .  S
C1733      C1734   1.350       .  D
C1733      H1735   1.087       .  S
C1734      H1736   1.087       .  S
C1737      C1738   1.342       .  D
C1737      H1739   1.087       .  S
C1738      H1740   1.087       .  S
C1741      C1742   1.344       .  D
C1741      H1743   1.087       .  S
C1742      H1744   1.087       .  S
C1745      H1747   1.086       .  S
C1746      H1748   1.086       .  S
C1749      C1750   1.344       .  D
C1749      H1751   1.087       .  S
C1750      H1752   1.087       .  S
C1753      C1754   1.345       .  D
C1753      H1755   1.086       .  S
C1754      H1756   1.087       .  S
C1757      C1758   1.341       .  D
C1757      H1759   1.087       .  S
C1758      H1760   1.087       .  S
C1761      C1762   1.346       .  D
C1761      H1763   1.088       .  S
C1762      H1764   1.086       .  S
C1765      C1766   1.343       .  D
C1765      H1767   1.087       .  S
C1766      H1768   1.087       .  S
C1769      C1770   1.341       .  D
C1769      H1771   1.087       .  S
C1770      H1772   1.087       .  S
C1773      C1774   1.345       .  D
C1773      H1775   1.089       .  S
C1774      H1776   1.086       .  S
C1777      C1778   1.343       .  D
C1777      H1779   1.087       .  S
C1778      H1780   1.087       .  S
C1781      C1782   1.346       .  D
C1781      H1783   1.087       .  S
C1782      H1784   1.087       .  S
C1785      H1787   1.086       .  S
C1786      H1788   1.087       .  S
C1789      C1790   1.339       .  D
C1789      H1791   1.088       .  S
C1790      H1792   1.087       .  S
C1793      C1794   1.345       .  D
C1793      H1795   1.086       .  S
C1794      H1796   1.087       .  S
C1797      C1798   1.343       .  D
C1797      H1799   1.087       .  S
C1798      H1800   1.087       .  S
C1801      H1803   1.087       .  S
C1802      H1804   1.088       .  S
C1805      C1806   1.353   1_545  D
C1805      H1807   1.087   1_545  S
C1806      H1808   1.087   1_565  S
C1809      C1810   1.338       .  D
C1809      H1811   1.087       .  S
C1810      H1812   1.087       .  S
C1813      C1814   1.343       .  D
C1813      H1815   1.087       .  S
C1814      H1816   1.087       .  S
C1817      C1818   1.338       .  D
C1817      H1819   1.087       .  S
C1818      H1820   1.087       .  S
C1821      C1822   1.342       .  D
C1821      H1823   1.087       .  S
C1822      H1824   1.087       .  S
