geometry optimzed in LAMMPS
_audit_creation_date              2020-12-01 
_audit_creation_method            'lammps2cif' 
_symmetry_space_group_name_H-M    'P1' 
_symmetry_Int_Tables_number       1 
_symmetry_cell_setting            triclinic 
loop_ 
_symmetry_equiv_pos_as_xyz 
  x,y,z 
_cell_length_a                    46.14803699 
_cell_length_b                    46.271346020709224 
_cell_length_c                    40.368039340996695 
_cell_angle_alpha                 89.88287429178938 
_cell_angle_beta                  90.16021564705665 
_cell_angle_gamma                 119.99711313048716 
loop_ 
_atom_site_label 
_atom_site_type_symbol 
_atom_site_fract_x 
_atom_site_fract_y 
_atom_site_fract_z 
_atom_site_charge 
C1          C  0.44382862  0.94875380  0.04876285    -0.09800
C2          C  0.46515205  0.93877342  0.06262743    -0.03700
C3          C  0.49818664  0.95192952  0.05211154    -0.09800
C4          C  0.51018722  0.97501919  0.02553130     0.11100
C5          C  0.48884519  0.98555474  0.01104226    -0.01600
C6          C  0.45560477  0.97262356  0.02291792     0.10900
C7          C  0.43510886  0.98366653  0.00848879    -0.11600
C8          C  0.44702318  0.00721640  0.98298090    -0.11600
C9          C  0.47972081  0.02026030  0.97077666     0.10900
C10         C  0.50079950  0.00914578  0.98470776    -0.01600
C11         C  0.54285713  0.98803787  0.01324284    -0.11700
C12         C  0.55426675  0.01048864  0.98679749    -0.11700
C13         C  0.53376102  0.02148200  0.97227371     0.11100
C14         C  0.54511778  0.04433772  0.94548671    -0.09800
C15         C  0.52424078  0.05544154  0.93263849    -0.03700
C16         C  0.49198590  0.04398166  0.94481358    -0.09800
H17         H  0.40967750  0.97417241  0.01690736     0.08400
H18         H  0.43032328  0.01502899  0.97270504     0.08400
H19         H  0.55984844  0.98080573  0.02385937     0.08600
H20         H  0.57945161  0.01935146  0.97792889     0.08600
H21         H  0.45582681  0.92042805  0.08241851     0.05000
H22         H  0.53339115  0.07361519  0.91269069     0.05000
O23         O  0.57677392  0.76048768  0.21239317    -0.70800
O24         O  0.57710720  0.81762997  0.28063850    -0.71000
O25         O  0.57740425  0.75952606  0.27921703    -0.70800
O26         O  0.57651965  0.81859988  0.21392442    -0.70800
O27         O  0.52232008  0.78919207  0.21199227    -0.70800
O28         O  0.52328021  0.73454154  0.28195407    -0.70800
O29         O  0.52295047  0.79239748  0.27864073    -0.70800
O30         O  0.52265861  0.73149908  0.21550830    -0.70900
V31         V  0.57595751  0.78857449  0.24656603     1.35200
V32         V  0.52385281  0.76245111  0.24701677     1.35200
C33         C  0.54952016  0.73577960  0.20269039     0.78500
C34         C  0.55004111  0.81514404  0.29094285     0.78500
C35         C  0.55045788  0.73718704  0.29213718     0.78400
C36         C  0.54924207  0.81350373  0.20127415     0.78400
O37         O  0.47993149  0.21065061  0.71469042    -0.70800
O38         O  0.47821691  0.26990034  0.77839060    -0.71000
O39         O  0.47942218  0.21240018  0.78084694    -0.70800
O40         O  0.47892951  0.26789908  0.71187400    -0.70800
O41         O  0.42467751  0.24036760  0.71086133    -0.70800
O42         O  0.42517072  0.18464837  0.78080461    -0.70800
O43         O  0.42399375  0.24248001  0.77768986    -0.70800
O44         O  0.42571703  0.18256731  0.71400934    -0.70900
V45         V  0.47800210  0.23970038  0.74648617     1.35200
V46         V  0.42587594  0.21303668  0.74589507     1.35200
C47         C  0.45323702  0.18641295  0.70344024     0.78500
C48         C  0.45089283  0.26653787  0.78891111     0.78500
C49         C  0.45254778  0.18864320  0.79226317     0.78400
C50         C  0.45194177  0.26356833  0.69923488     0.78400
O51         O  0.75907828  0.18327805  0.78870205    -0.70800
O52         O  0.81837207  0.24086593  0.72176847    -0.71000
O53         O  0.81876375  0.24060855  0.78873069    -0.70800
O54         O  0.75895746  0.18383174  0.72165719    -0.70800
O55         O  0.73295204  0.21196176  0.72324579    -0.70800
O56         O  0.79335822  0.26933531  0.78841798    -0.70800
O57         O  0.79190053  0.26854315  0.72194117    -0.70800
O58         O  0.73431317  0.21257306  0.78971598    -0.70900
V59         V  0.78831663  0.21264050  0.75529413     1.35200
V60         V  0.76367397  0.24002167  0.75582860     1.35200
C61         C  0.73659386  0.18822134  0.80079822     0.78500
C62         C  0.81488048  0.26436139  0.71005424     0.78500
C63         C  0.81628106  0.26484208  0.79994176     0.78400
C64         C  0.73577832  0.18842947  0.71085760     0.78400
O65         O  0.20561621  0.73461874  0.28542505    -0.70800
O66         O  0.26308503  0.79165965  0.21858457    -0.71000
O67         O  0.26489398  0.79116534  0.28457080    -0.70800
O68         O  0.20383251  0.73523801  0.21918199    -0.70800
O69         O  0.17716775  0.76267910  0.22160626    -0.70800
O70         O  0.24080321  0.82111884  0.28570731    -0.70800
O71         O  0.23704677  0.81982063  0.21866392    -0.70800
O72         O  0.18080247  0.76378603  0.28854745    -0.70900
V73         V  0.23375664  0.76374391  0.25199314     1.35200
V74         V  0.20939215  0.79136713  0.25363101     1.35200
C75         C  0.18349482  0.73926449  0.29866954     0.78500
C76         C  0.26003285  0.81538136  0.20702984     0.78500
C77         C  0.26395153  0.81611384  0.29590667     0.78400
C78         C  0.17994780  0.73902983  0.20923311     0.78400
C79         C  0.95943246  0.50433465  0.94540464    -0.09800
C80         C  0.95028046  0.47281723  0.93271379    -0.03700
C81         C  0.95909435  0.45138469  0.94856554    -0.09800
C82         C  0.97797866  0.46179517  0.97825859     0.11100
C83         C  0.98778872  0.49391386  0.99139688    -0.01600
C84         C  0.97851889  0.51526291  0.97492281     0.10900
C85         C  0.98860412  0.54694512  0.98833828    -0.11600
C86         C  0.00719234  0.55745315  0.01756809    -0.11000
C87         C  0.01663602  0.53680166  0.03429884     0.10900
C88         C  0.00674432  0.50464536  0.02119288    -0.01600
C89         C  0.98751910  0.44118348  0.99499405    -0.11700
C90         C  0.00607021  0.45168983  0.02427560    -0.11700
C91         C  0.01595860  0.48328948  0.03772907     0.11100
C92         C  0.03479472  0.49421963  0.06736970    -0.09800
C93         C  0.04390630  0.52565542  0.08007143    -0.03700
C94         C  0.03554329  0.54722811  0.06396608    -0.09800
H95         H  0.98229226  0.56396669  0.97623118     0.08400
H96         H  0.01407971  0.58194750  0.02703921     0.08400
H97         H  0.98073194  0.41672378  0.98550886     0.08600
H98         H  0.01261867  0.43482190  0.03635469     0.08600
H99         H  0.93481185  0.46421651  0.91061942     0.05000
H100        H  0.05897548  0.53403279  0.10246956     0.05000
C101        C  0.95127020  0.44866336  0.55345856    -0.09800
C102        C  0.94041587  0.46968576  0.56628916    -0.03700
C103        C  0.95215549  0.50191149  0.55410382    -0.09800
C104        C  0.97564626  0.51394517  0.52802722     0.11100
C105        C  0.98703900  0.49303616  0.51452266    -0.01600
C106        C  0.97466638  0.46015748  0.52709344     0.10900
C107        C  0.98615257  0.43994343  0.51309265    -0.11600
C108        C  0.00930826  0.45165824  0.48719018    -0.11600
C109        C  0.02252294  0.48432634  0.47495487     0.10900
C110        C  0.01097290  0.50513083  0.48850109    -0.01600
C111        C  0.98791455  0.54620235  0.51508749    -0.11700
C112        C  0.01110937  0.55793649  0.48935192    -0.11700
C113        C  0.02302072  0.53791194  0.47582057     0.11100
C114        C  0.04652374  0.54962385  0.44972864    -0.09800
C115        C  0.05817752  0.52921895  0.43733440    -0.03700
C116        C  0.04656310  0.49681832  0.44915159    -0.09800
H117        H  0.97716399  0.41479225  0.52201073     0.08400
H118        H  0.01682081  0.43487870  0.47681452     0.08400
H119        H  0.97958582  0.56262317  0.52477362     0.08600
H120        H  0.01974006  0.58293087  0.48014549     0.08600
H121        H  0.92253970  0.46082884  0.58651207     0.05000
H122        H  0.07656639  0.53873721  0.41756600     0.05000
O123        O  0.21204890  0.47420567  0.29141833    -0.70800
O124        O  0.26186854  0.47892696  0.21477609    -0.71000
O125        O  0.20297893  0.47634944  0.22636915    -0.70800
O126        O  0.27074935  0.47663621  0.28032273    -0.70800
O127        O  0.24269342  0.42256505  0.28232308    -0.70800
O128        O  0.18013537  0.42270677  0.22042397    -0.70800
O129        O  0.23966213  0.42513782  0.21563492    -0.70800
O130        O  0.18291724  0.42032482  0.28659523    -0.70900
V131        V  0.23648184  0.47550756  0.25317838     1.35200
V132        V  0.21187150  0.42363123  0.25129356     1.35200
C133        C  0.18781380  0.44667580  0.30101899     0.78500
C134        C  0.26004999  0.45291821  0.20253755     0.78500
C135        C  0.17999949  0.44943872  0.21411204     0.78400
C136        C  0.26802697  0.44971523  0.29122111     0.78400
O137        O  0.75931756  0.57448133  0.78716090    -0.70800
O138        O  0.81994253  0.57955813  0.71981588    -0.71000
O139        O  0.76004973  0.57661416  0.72007611    -0.70800
O140        O  0.81925217  0.57754992  0.78687903    -0.70800
O141        O  0.79203680  0.52345566  0.78713457    -0.70800
O142        O  0.73715125  0.52286639  0.71675238    -0.70800
O143        O  0.79640503  0.52555760  0.72102816    -0.70800
O144        O  0.73286166  0.52055154  0.78304993    -0.70900
V145        V  0.78918768  0.57611930  0.75345325     1.35200
V146        V  0.76511466  0.52422162  0.75198349     1.35200
C147        C  0.73550528  0.54641925  0.79643777     0.78500
C148        C  0.81874784  0.55314939  0.70945677     0.78500
C149        C  0.73878780  0.54948689  0.70652478     0.78400
C150        C  0.81525186  0.55047917  0.79890260     0.78400
C151        C  0.50089415  0.54917158  0.05031512    -0.09800
C152        C  0.46858756  0.52954881  0.06284474    -0.03700
C153        C  0.44677686  0.49761055  0.05065330    -0.09800
C154        C  0.45739817  0.48478982  0.02439955     0.11100
C155        C  0.49043571  0.50426083  0.01166611    -0.01600
C156        C  0.51235462  0.53650605  0.02482324     0.10900
C157        C  0.54506143  0.55504659  0.01232389    -0.11600
C158        C  0.55627903  0.54215999  0.98741753    -0.11600
C159        C  0.53495428  0.51059891  0.97366044     0.10900
C160        C  0.50162633  0.49144404  0.98578086    -0.01600
C161        C  0.43616034  0.45310997  0.01072829    -0.11700
C162        C  0.44694578  0.44077583  0.98483783    -0.11700
C163        C  0.47952938  0.45945450  0.97211791     0.11100
C164        C  0.49086242  0.44727191  0.94599381    -0.09800
C165        C  0.52371901  0.46621355  0.93487165    -0.03700
C166        C  0.54594773  0.49730270  0.94827916    -0.09800
H167        H  0.56233179  0.57959659  0.02197486     0.08400
H168        H  0.58180122  0.55719893  0.97886371     0.08400
H169        H  0.41093506  0.43765825  0.01991655     0.08600
H170        H  0.42964660  0.41635626  0.97495272     0.08600
H171        H  0.46017543  0.53944795  0.08261969     0.05000
H172        H  0.53228979  0.45639489  0.91513037     0.05000
C173        C  0.46156780  0.49340776  0.43543613    -0.09800
C174        C  0.48300442  0.52403929  0.42049283    -0.03700
C175        C  0.51452900  0.54604428  0.43352422    -0.09800
C176        C  0.52570579  0.53685837  0.46225443     0.11100
C177        C  0.50455571  0.50542264  0.47749167    -0.01600
C178        C  0.47223876  0.48364977  0.46414925     0.10900
C179        C  0.45156146  0.45301978  0.47996077    -0.11600
C180        C  0.46242434  0.44367295  0.50826378    -0.11600
C181        C  0.49436710  0.46462393  0.52180427     0.10900
C182        C  0.51552070  0.49604052  0.50646240    -0.01600
C183        C  0.55734426  0.55817525  0.47610722    -0.11700
C184        C  0.56813834  0.54895621  0.50446820    -0.11700
C185        C  0.54766381  0.51809660  0.51999207     0.11100
C186        C  0.55839574  0.50856094  0.54872418    -0.09800
C187        C  0.53750030  0.47755029  0.56320490    -0.03700
C188        C  0.50575391  0.45539773  0.55051052    -0.09800
H189        H  0.42679836  0.43601391  0.47044371     0.08400
H190        H  0.44542407  0.41992583  0.51962937     0.08400
H191        H  0.57408875  0.58215202  0.46495739     0.08600
H192        H  0.59269486  0.56624462  0.51423035     0.08600
H193        H  0.47420839  0.53167009  0.39905828     0.05000
H194        H  0.54667787  0.47009479  0.58446365     0.05000
C195        C  0.51396621  0.95934879  0.44424697    -0.09800
C196        C  0.48198825  0.94700965  0.43084173    -0.03700
C197        C  0.46049121  0.95815211  0.44150956    -0.09800
C198        C  0.47116490  0.98284627  0.46640451     0.11100
C199        C  0.50356365  0.99567816  0.48052168    -0.01600
C200        C  0.52506215  0.98381179  0.46954315     0.10900
C201        C  0.55685704  0.99672663  0.48409938    -0.11600
C202        C  0.56748533  0.02090968  0.50897919    -0.11600
C203        C  0.54669208  0.03301318  0.52011038     0.10900
C204        C  0.51439446  0.02031037  0.50577327    -0.01600
C205        C  0.45025465  0.99472484  0.47778396    -0.11700
C206        C  0.46087952  0.01887058  0.50262919    -0.11700
C207        C  0.49277403  0.03196418  0.51690505     0.11100
C208        C  0.50382595  0.05640125  0.54212636    -0.09800
C209        C  0.53579963  0.06897732  0.55538911    -0.03700
C210        C  0.55718113  0.05762828  0.54512598    -0.09800
H211        H  0.57371913  0.98815410  0.47632265     0.08400
H212        H  0.59220793  0.03016098  0.51944310     0.08400
H213        H  0.42543913  0.98536240  0.46752960     0.08600
H214        H  0.44396762  0.02733865  0.51054924     0.08600
H215        H  0.47352002  0.92807701  0.41164866     0.05000
H216        H  0.54392812  0.08747135  0.57501297     0.05000
C217        C  0.61867774  0.54586470  0.89035398    -0.13300
C218        C  0.63657786  0.52899316  0.89501378     0.17000
C219        C  0.62767769  0.50600087  0.92133841     0.03300
C220        C  0.59966095  0.49843840  0.94077047    -0.11800
C221        C  0.58039320  0.51364199  0.93469019    -0.02900
C222        C  0.59064093  0.53826658  0.90988571     0.02600
C223        C  0.66219267  0.53334473  0.87025998     0.09400
N224        N  0.64641225  0.48965844  0.92816787     0.65800
H225        H  0.59182187  0.47930575  0.95963769     0.18700
N226        N  0.57120637  0.55366246  0.90243240     0.76200
H227        H  0.62529443  0.56354397  0.87021089     0.10200
C228        C  0.65699944  0.50707642  0.84890775     0.03900
C229        C  0.68141155  0.51197324  0.82556945    -0.04800
C230        C  0.71087328  0.54302566  0.82211765    -0.23200
C231        C  0.71580218  0.56942787  0.84330506     0.13100
C232        C  0.69155981  0.56434525  0.86713497    -0.12400
N233        N  0.62623448  0.47589341  0.84922785     0.64800
H234        H  0.67666967  0.49147967  0.80932263     0.12700
N235        N  0.74537770  0.60139565  0.84136040     0.61500
H236        H  0.69566158  0.58470204  0.88328029     0.08800
O237        O  0.54853531  0.54102062  0.88069369    -0.40000
O238        O  0.58049149  0.58260794  0.91313498    -0.39200
O239        O  0.67547111  0.50622133  0.94020867    -0.39200
O240        O  0.63190496  0.45819579  0.92820415    -0.36900
O241        O  0.74492608  0.62439815  0.82494014    -0.37800
O242        O  0.76940010  0.60837854  0.86087549    -0.33900
O243        O  0.59996666  0.47457848  0.83825304    -0.35300
O244        O  0.62673093  0.44912007  0.85353061    -0.39600
C245        C  0.62516275  0.55516440  0.61307608    -0.13300
C246        C  0.64956313  0.54729519  0.60313986     0.17000
C247        C  0.64628487  0.53225023  0.57190165     0.03300
C248        C  0.61766412  0.52287329  0.55255282    -0.11800
C249        C  0.59213223  0.52840814  0.56373217    -0.02900
C250        C  0.59657306  0.54582953  0.59362284     0.02600
C251        C  0.67445617  0.54918860  0.62789453     0.09400
N252        N  0.67097428  0.52465088  0.56037376     0.65800
H253        H  0.61432421  0.50923062  0.52982156     0.18700
N254        N  0.57098146  0.55180823  0.60574265     0.76200
H255        H  0.62702387  0.56628781  0.63705959     0.10200
C256        C  0.69684584  0.57903958  0.64428970     0.03900
C257        C  0.71760655  0.57871974  0.66967847    -0.04800
C258        C  0.71642855  0.54888136  0.67938840    -0.23200
C259        C  0.69379748  0.51899035  0.66281930     0.13100
C260        C  0.67323150  0.51946187  0.63752477    -0.12400
N261        N  0.69907978  0.60993784  0.63515171     0.64800
H262        H  0.73467026  0.60194865  0.68179111     0.12700
N263        N  0.69077985  0.48766786  0.67161617     0.61500
H264        H  0.65543498  0.49617326  0.62596938     0.08800
O265        O  0.57276505  0.57947763  0.60010114    -0.40000
O266        O  0.54994740  0.53195458  0.62639710    -0.39200
O267        O  0.66407591  0.49465044  0.55850714    -0.39200
O268        O  0.69721496  0.54719531  0.54683484    -0.36900
O269        O  0.66975348  0.46963946  0.69325031    -0.37800
O270        O  0.70462913  0.47559237  0.65392440    -0.33900
O271        O  0.68886546  0.62404749  0.65484028    -0.35300
O272        O  0.71593863  0.62556259  0.61007271    -0.39600
C273        C  0.32362837  0.48565711  0.13159939    -0.13300
C274        C  0.32596580  0.45734634  0.12391404     0.17000
C275        C  0.30517919  0.42727776  0.14076537     0.03300
C276        C  0.28328761  0.42615995  0.16546214    -0.11800
C277        C  0.28175716  0.45479885  0.17423117    -0.02900
C278        C  0.30196306  0.48473547  0.15646886     0.02600
C279        C  0.35378684  0.46120258  0.10231184     0.09400
N280        N  0.30639796  0.39773299  0.13334734     0.65800
H281        H  0.26801949  0.40284633  0.17838046     0.18700
N282        N  0.30167529  0.51476938  0.16391356     0.76200
H283        H  0.33991035  0.50910378  0.11930335     0.10200
C284        C  0.35653071  0.47106807  0.06882425     0.03900
C285        C  0.38603058  0.47994631  0.05109667    -0.04800
C286        C  0.41314605  0.47945139  0.06638987    -0.23200
C287        C  0.40984128  0.46842244  0.09949702     0.13100
C288        C  0.38030216  0.45920833  0.11700456    -0.12400
N289        N  0.33009175  0.47341267  0.05292725     0.64800
H290        H  0.38852248  0.48911042  0.02599428     0.12700
N291        N  0.43733180  0.46901581  0.11649116     0.61500
H292        H  0.37884325  0.45232719  0.14282915     0.08800
O293        O  0.28503004  0.52351969  0.14585632    -0.40000
O294        O  0.32289132  0.53544708  0.18398559    -0.39200
O295        O  0.31960919  0.38702353  0.15373117    -0.39200
O296        O  0.28939131  0.37947555  0.10950899    -0.36900
O297        O  0.45261691  0.49060514  0.13866435    -0.37800
O298        O  0.44220262  0.44461983  0.11376332    -0.33900
O299        O  0.33271564  0.50164590  0.04865661    -0.35300
O300        O  0.30730954  0.44832770  0.03806607    -0.39600
C301        C  0.39469206  0.44915753  0.37095536    -0.13300
C302        C  0.37199679  0.45962076  0.37987056     0.17000
C303        C  0.37612792  0.47595170  0.41041463     0.03300
C304        C  0.40373791  0.48328135  0.43060982    -0.11800
C305        C  0.42750066  0.47454498  0.42084837    -0.02900
C306        C  0.42222818  0.45631863  0.39134139     0.02600
C307        C  0.34579198  0.45597021  0.35605243     0.09400
N308        N  0.35373574  0.48729008  0.42010418     0.65800
H309        H  0.40804582  0.49813307  0.45272702     0.18700
N310        N  0.44601022  0.44703824  0.38083982     0.76200
H311        H  0.39169025  0.43651039  0.34756982     0.10200
C312        C  0.35200652  0.48183198  0.33372563     0.03900
C313        C  0.32640074  0.47916414  0.31298255    -0.04800
C314        C  0.29436822  0.45060155  0.31339214    -0.23200
C315        C  0.28850334  0.42413760  0.33509716     0.13100
C316        C  0.31409246  0.42716748  0.35637989    -0.12400
N317        N  0.38439906  0.51093580  0.33167590     0.64800
H318        H  0.33179071  0.49951660  0.29623574     0.12700
N319        N  0.25649593  0.39451367  0.33668529     0.61500
H320        H  0.30910739  0.40715827  0.37344203     0.08800
O321        O  0.46503488  0.46179188  0.35666766    -0.40000
O322        O  0.45014739  0.42631765  0.39759072    -0.39200
O323        O  0.33085045  0.47054748  0.44070270    -0.39200
O324        O  0.36029989  0.51643917  0.41264644    -0.36900
O325        O  0.25149623  0.36891573  0.32088197    -0.37800
O326        O  0.23566596  0.39204521  0.35828628    -0.33900
O327        O  0.40542918  0.51164826  0.31129940    -0.35300
O328        O  0.38963780  0.53765516  0.34527100    -0.39600
C329        C  0.10195628  0.46048593  0.42779579    -0.13300
C330        C  0.09889934  0.45893122  0.39309722     0.17000
C331        C  0.07456899  0.46462053  0.37808723     0.03300
C332        C  0.05497558  0.47316348  0.39758206    -0.11800
C333        C  0.05985831  0.47741966  0.43198098    -0.02900
C334        C  0.08292600  0.47000963  0.44727295     0.02600
C335        C  0.12229735  0.45323177  0.37253727     0.09400
N336        N  0.07186993  0.46527751  0.34283304     0.65800
H337        H  0.03783226  0.47935483  0.38546816     0.18700
N338        N  0.08909021  0.47435645  0.48211622     0.76200
H339        H  0.12022955  0.45577292  0.43964146     0.10200
C340        C  0.15708733  0.47561648  0.37343195     0.03900
C341        C  0.17816032  0.47198268  0.35101809    -0.04800
C342        C  0.16531452  0.44615596  0.32751515    -0.23200
C343        C  0.13068833  0.42267132  0.32779960     0.13100
C344        C  0.10955998  0.42644055  0.35015269    -0.12400
N345        N  0.17118053  0.50350405  0.39547128     0.64800
H346        H  0.20459105  0.49018336  0.35126803     0.12700
N347        N  0.11617568  0.39624609  0.30409991     0.61500
H348        H  0.08295723  0.40896441  0.34935477     0.08800
O349        O  0.07744709  0.44903993  0.50068779    -0.40000
O350        O  0.11166977  0.50212395  0.49302577    -0.39200
O351        O  0.04579327  0.44329340  0.32851246    -0.39200
O352        O  0.09253068  0.49084895  0.32694185    -0.36900
O353        O  0.10391339  0.40019449  0.27765509    -0.37800
O354        O  0.11008691  0.36740195  0.31223506    -0.33900
O355        O  0.18781683  0.50342028  0.42029194    -0.35300
O356        O  0.17225794  0.53026775  0.38692091    -0.39600
C357        C  0.93739527  0.55171306  0.61887477    -0.13300
C358        C  0.90453709  0.54366392  0.61121090     0.17000
C359        C  0.88986698  0.52684260  0.58139896     0.03300
C360        C  0.90703609  0.51577258  0.56121460    -0.11800
C361        C  0.93897030  0.52177499  0.57012513    -0.02900
C362        C  0.95476725  0.54113806  0.59839163     0.02600
C363        C  0.88415508  0.54789327  0.63692733     0.09400
N364        N  0.85655005  0.51851770  0.57272496     0.65800
H365        H  0.89461854  0.50067988  0.53967656     0.18700
N366        N  0.98756478  0.54826026  0.60771579     0.76200
H367        H  0.94887023  0.56467409  0.64170365     0.10200
C368        C  0.87164566  0.52538088  0.66363218     0.03900
C369        C  0.85103275  0.52814259  0.68712121    -0.04800
C370        C  0.84280648  0.55348624  0.68497732    -0.23200
C371        C  0.85637638  0.57691837  0.65886737     0.13100
C372        C  0.87663939  0.57372389  0.63481996    -0.12400
N373        N  0.87914590  0.49903679  0.66678222     0.64800
H374        H  0.84123848  0.51015422  0.70711644     0.12700
N375        N  0.84880200  0.60318539  0.65567249     0.61500
H376        H  0.88629856  0.59120950  0.61441284     0.08800
O377        O  0.99118514  0.53152536  0.63040023    -0.40000
O378        O  0.01273328  0.57436287  0.59702848    -0.39200
O379        O  0.85194241  0.53630645  0.55203123    -0.39200
O380        O  0.83222611  0.49077131  0.58145548    -0.36900
O381        O  0.86962901  0.63210188  0.66569969    -0.37800
O382        O  0.82455117  0.59899059  0.63775754    -0.33900
O383        O  0.90187868  0.50224637  0.68643356    -0.35300
O384        O  0.85986848  0.47094650  0.65398268    -0.39600
C385        C  0.11598223  0.47002522  0.17882315    -0.13300
C386        C  0.10430118  0.44903564  0.15101204     0.17000
C387        C  0.11717091  0.42765434  0.14455529     0.03300
C388        C  0.14134541  0.42764823  0.16570328    -0.11800
C389        C  0.15355623  0.44919178  0.19306508    -0.02900
C390        C  0.14035440  0.47028152  0.19977456     0.02600
C391        C  0.08194164  0.45303380  0.12716263     0.09400
N392        N  0.10607165  0.40597108  0.11648674     0.65800
H393        H  0.15114403  0.41124325  0.16028154     0.18700
N394        N  0.15097045  0.49166492  0.22810566     0.76200
H395        H  0.10684608  0.48706063  0.18378863     0.10200
C396        C  0.05149450  0.45047751  0.13735607     0.03900
C397        C  0.03482643  0.46162917  0.11638833    -0.04800
C398        C  0.04794942  0.47516897  0.08519801    -0.23200
C399        C  0.07730973  0.47604663  0.07428049     0.13100
C400        C  0.09393606  0.46482736  0.09515404    -0.12400
N401        N  0.03789492  0.43776419  0.16938240     0.64800
H402        H  0.01245686  0.46120784  0.12506153     0.12700
N403        N  0.09238739  0.49153002  0.04352249     0.61500
H404        H  0.11767175  0.46783436  0.08731294     0.08800
O405        O  0.17206796  0.52225553  0.22471886    -0.40000
O406        O  0.13506984  0.48139466  0.25495323    -0.39200
O407        O  0.12527235  0.41236897  0.09198733    -0.39200
O408        O  0.07990314  0.37779149  0.11860280    -0.36900
O409        O  0.09162811  0.47385823  0.01941704    -0.37800
O410        O  0.11018748  0.52288572  0.04183999    -0.33900
O411        O  0.03753588  0.45715916  0.19110121    -0.35300
O412        O  0.02097776  0.40663702  0.17385112    -0.39600
C413        C  0.93420082  0.54584771  0.87906838    -0.13300
C414        C  0.90663591  0.54542473  0.89421485     0.17000
C415        C  0.89950860  0.53548452  0.92766195     0.03300
C416        C  0.91867954  0.52448048  0.94473409    -0.11800
C417        C  0.94491308  0.52297592  0.92894812    -0.02900
C418        C  0.95317408  0.53451773  0.89606216     0.02600
C419        C  0.88231504  0.54914935  0.87304457     0.09400
N420        N  0.87186771  0.53492302  0.94413253     0.65800
H421        H  0.91194822  0.51540518  0.96982557     0.18700
N422        N  0.97959916  0.53319006  0.87904074     0.76200
H423        H  0.93958508  0.55277463  0.85329587     0.10200
C424        C  0.89130523  0.57830097  0.85455905     0.03900
C425        C  0.86882851  0.57872633  0.83125642    -0.04800
C426        C  0.83740132  0.55019986  0.82564119    -0.23200
C427        C  0.82822708  0.52135500  0.84498570     0.13100
C428        C  0.85059165  0.52112448  0.86828768    -0.12400
N429        N  0.92325988  0.60753287  0.85900059     0.64800
H430        H  0.87638319  0.60113945  0.81693769     0.12700
N431        N  0.79644422  0.49177147  0.84106743     0.61500
H432        H  0.84358488  0.49839367  0.88183617     0.08800
O433        O  0.97291287  0.50840683  0.86094131    -0.40000
O434        O  0.00779441  0.55931006  0.87656460    -0.39200
O435        O  0.84599125  0.50731690  0.95017705    -0.39200
O436        O  0.87598124  0.56092078  0.95845904    -0.36900
O437        O  0.79400117  0.46842137  0.82300938    -0.37800
O438        O  0.77274217  0.48647840  0.86024632    -0.33900
O439        O  0.94563561  0.61547488  0.83731527    -0.35300
O440        O  0.92710460  0.62816555  0.88137381    -0.39600
C441        C  0.37550498  0.88993176  0.41435372    -0.13300
C442        C  0.37048364  0.90385621  0.38551309     0.17000
C443        C  0.39289720  0.93762284  0.37799878     0.03300
C444        C  0.42105388  0.95629700  0.39814832    -0.11800
C445        C  0.42673600  0.94188970  0.42621510    -0.02900
C446        C  0.40311893  0.90885773  0.43496118     0.02600
C447        C  0.34326494  0.88204806  0.36234229     0.09400
N448        N  0.38855019  0.95251971  0.34879013     0.65800
H449        H  0.43942759  0.98147042  0.39091736     0.18700
N450        N  0.40792349  0.89392660  0.46397417     0.76200
H451        H  0.35823633  0.86409367  0.42050987     0.10200
C452        C  0.34578342  0.85790218  0.34343883     0.03900
C453        C  0.31961139  0.83675923  0.32237878    -0.04800
C454        C  0.29037234  0.83898002  0.31954414    -0.23200
C455        C  0.28782275  0.86319443  0.33870243     0.13100
C456        C  0.31429040  0.88458480  0.35973667    -0.12400
N457        N  0.37520296  0.85504289  0.34486565     0.64800
H458        H  0.32250781  0.81874731  0.30785553     0.12700
N459        N  0.25814652  0.86558158  0.33814865     0.61500
H460        H  0.31198038  0.90279871  0.37451571     0.08800
O461        O  0.41285465  0.86955712  0.46135554    -0.40000
O462        O  0.40913456  0.90628945  0.49213716    -0.39200
O463        O  0.37415374  0.96954665  0.35064249    -0.39200
O464        O  0.40330951  0.95283444  0.32241373    -0.36900
O465        O  0.23484686  0.84846603  0.35824685    -0.37800
O466        O  0.25779041  0.88886877  0.32218148    -0.33900
O467        O  0.37527468  0.83236101  0.36220485    -0.35300
O468        O  0.39861699  0.87113022  0.32455547    -0.39600
C469        C  0.10226492  0.68728199  0.15542066    -0.13300
C470        C  0.11141582  0.66622944  0.13913831     0.17000
C471        C  0.14360805  0.67077187  0.14461127     0.03300
C472        C  0.16553617  0.69520949  0.16667842    -0.11800
C473        C  0.15628245  0.71573176  0.18390024    -0.02900
C474        C  0.12446223  0.71208866  0.17746938     0.02600
C475        C  0.08725369  0.63889312  0.11720680     0.09400
N476        N  0.15392664  0.64964432  0.12909232     0.65800
H477        H  0.18976986  0.69757205  0.17078937     0.18700
N478        N  0.11396656  0.73279826  0.19349777     0.76200
H479        H  0.07783690  0.68435704  0.15112259     0.10200
C480        C  0.05722456  0.61230015  0.12980936     0.03900
C481        C  0.03846130  0.58362423  0.11055697    -0.04800
C482        C  0.04917993  0.58093983  0.07877691    -0.23200
C483        C  0.07757833  0.60861660  0.06513017     0.13100
C484        C  0.09618878  0.63741780  0.08425681    -0.12400
N485        N  0.04717552  0.61265781  0.16318630     0.64800
H486        H  0.01692904  0.56239868  0.12138607     0.12700
N487        N  0.08969660  0.60659299  0.03318384     0.61500
H488        H  0.11884574  0.65782158  0.07411036     0.08800
O489        O  0.09524348  0.72201647  0.21857173    -0.40000
O490        O  0.11839412  0.75902212  0.17930705    -0.39200
O491        O  0.17500218  0.66096807  0.10587802    -0.39200
O492        O  0.14666842  0.62209889  0.14229229    -0.36900
O493        O  0.08399980  0.61985878  0.00855713    -0.37800
O494        O  0.11043978  0.59651254  0.03060433    -0.33900
O495        O  0.02294562  0.61733037  0.16880300    -0.35300
O496        O  0.05866449  0.60289313  0.18631668    -0.39600
C497        C  0.11350849  0.69269351  0.36238649    -0.13300
C498        C  0.12058410  0.66797282  0.37299742     0.17000
C499        C  0.14837820  0.66730068  0.35965046     0.03300
C500        C  0.16878671  0.69130538  0.33642465    -0.11800
C501        C  0.16171669  0.71593906  0.32511897    -0.02900
C502        C  0.13371557  0.71655427  0.33857263     0.02600
C503        C  0.09767168  0.64128029  0.39601593     0.09400
N504        N  0.15494916  0.64101200  0.36780458     0.65800
H505        H  0.18972612  0.68984709  0.32645079     0.18700
N506        N  0.12466074  0.74033482  0.32756750     0.76200
H507        H  0.09188438  0.69303743  0.37210607     0.10200
C508        C  0.10733168  0.63942963  0.42878878     0.03900
C509        C  0.08863328  0.61019839  0.44739567    -0.04800
C510        C  0.06004698  0.58288239  0.43390939    -0.23200
C511        C  0.04903832  0.58576287  0.40210994     0.13100
C512        C  0.06787433  0.61481762  0.38340884    -0.12400
N513        N  0.13658750  0.66667453  0.44307047     0.64800
H514        H  0.09737258  0.60816815  0.47172332     0.12700
N515        N  0.01991559  0.55845898  0.38772608     0.61500
H516        H  0.06025534  0.61595115  0.35827866     0.08800
O517        O  0.13259009  0.76596724  0.34478639    -0.40000
O518        O  0.10395493  0.73288844  0.30415272    -0.39200
O519        O  0.13799542  0.61290095  0.35410542    -0.39200
O520        O  0.18147154  0.64766208  0.38305361    -0.36900
O521        O  0.02294856  0.53923407  0.36770691    -0.37800
O522        O  0.99193695  0.55681984  0.39084302    -0.33900
O523        O  0.13445623  0.68999008  0.45685049    -0.35300
O524        O  0.16231161  0.66421705  0.44775188    -0.39600
C525        C  0.69555860  0.12790566  0.63841553    -0.13300
C526        C  0.66626306  0.12946607  0.63385150     0.17000
C527        C  0.65963805  0.14963680  0.65496764     0.03300
C528        C  0.68263941  0.16851323  0.67967173    -0.11800
C529        C  0.71221299  0.16727856  0.68442420    -0.02900
C530        C  0.71848745  0.14650622  0.66350741     0.02600
C531        C  0.64230879  0.10944532  0.60746551     0.09400
N532        N  0.62900026  0.15019893  0.65249002     0.65800
H533        H  0.67691525  0.18373197  0.69559478     0.18700
N534        N  0.74823955  0.14447744  0.66683581     0.76200
H535        H  0.70067084  0.11231198  0.62239211     0.10200
C536        C  0.63953187  0.12447630  0.57815399     0.03900
C537        C  0.61333474  0.10593640  0.55596440    -0.04800
C538        C  0.58978321  0.07245624  0.56250337    -0.23200
C539        C  0.59371223  0.05693042  0.59086137     0.13100
C540        C  0.61998319  0.07545821  0.61305842    -0.12400
N541        N  0.66232293  0.15886904  0.57128016     0.64800
H542        H  0.61011072  0.11824746  0.53461318     0.12700
N543        N  0.56950361  0.02325745  0.59887932     0.61500
H544        H  0.62187801  0.06378867  0.63558954     0.08800
O545        O  0.77321704  0.16258287  0.64888773    -0.40000
O546        O  0.74727748  0.12044078  0.68260222    -0.39200
O547        O  0.60310999  0.12754394  0.66643497    -0.39200
O548        O  0.62954864  0.17648055  0.64306030    -0.36900
O549        O  0.57445291  0.99988131  0.59028768    -0.37800
O550        O  0.54625966  0.01744048  0.61891030    -0.33900
O551        O  0.68887734  0.16682198  0.55557589    -0.35300
O552        O  0.65278956  0.17995560  0.57444184    -0.39600
C553        C  0.88564321  0.30963304  0.64694255    -0.13300
C554        C  0.87733737  0.33257424  0.63356426     0.17000
C555        C  0.84812720  0.33199632  0.64440230     0.03300
C556        C  0.82818047  0.30935934  0.66883658    -0.11800
C557        C  0.83658195  0.28670049  0.68303904    -0.02900
C558        C  0.86544111  0.28658447  0.67131133     0.02600
C559        C  0.90063629  0.35922327  0.61071743     0.09400
N560        N  0.83922971  0.35543037  0.63187865     0.65800
H561        H  0.80620727  0.30996754  0.67699377     0.18700
N562        N  0.87509707  0.26387895  0.68427572     0.76200
H563        H  0.90814880  0.31002649  0.63886829     0.10200
C564        C  0.92941416  0.38730560  0.62322332     0.03900
C565        C  0.94781468  0.41520873  0.60293322    -0.04800
C566        C  0.93799977  0.41568357  0.57005464    -0.23200
C567        C  0.91055922  0.38665857  0.55684164     0.13100
C568        C  0.89201065  0.35871474  0.57725407    -0.12400
N569        N  0.93831359  0.38900019  0.65738743     0.64800
H570        H  0.96840849  0.43752697  0.61357232     0.12700
N571        N  0.89978666  0.38611013  0.52352658     0.61500
H572        H  0.86988734  0.33724103  0.56744751     0.08800
O573        O  0.89638340  0.27315518  0.70735358    -0.40000
O574        O  0.86730316  0.23732275  0.66874614    -0.39200
O575        O  0.81812594  0.34698022  0.60871155    -0.39200
O576        O  0.84806993  0.38219956  0.64744400    -0.36900
O577        O  0.90955571  0.37419201  0.50093480    -0.37800
O578        O  0.87598169  0.39146514  0.51782951    -0.33900
O579        O  0.95890245  0.38011305  0.66636409    -0.35300
O580        O  0.92364857  0.39684086  0.67888045    -0.39600
C581        C  0.85594671  0.33200238  0.86630257    -0.13300
C582        C  0.88682488  0.33374185  0.87135571     0.17000
C583        C  0.89397393  0.31169616  0.85384845     0.03300
C584        C  0.87062815  0.28917982  0.83092320    -0.11800
C585        C  0.83983559  0.28782737  0.82544837    -0.02900
C586        C  0.83246104  0.30927311  0.84396885     0.02600
C587        C  0.91116701  0.36012817  0.89391904     0.09400
N588        N  0.92414807  0.31100554  0.85993381     0.65800
H589        H  0.87664311  0.27268313  0.81739480     0.18700
N590        N  0.80086503  0.30777653  0.84117230     0.76200
H591        H  0.85006319  0.34866998  0.87973333     0.10200
C592        C  0.94042244  0.38797467  0.88157847     0.03900
C593        C  0.95802985  0.41645396  0.90139613    -0.04800
C594        C  0.94659753  0.41803539  0.93315405    -0.23200
C595        C  0.91892142  0.38932569  0.94641068     0.13100
C596        C  0.90169822  0.36057859  0.92687839    -0.12400
N597        N  0.95024371  0.38939336  0.84778895     0.64800
H598        H  0.97896831  0.43854663  0.89082968     0.12700
N599        N  0.90580933  0.39016597  0.97819016     0.61500
H600        H  0.87915295  0.33946686  0.93654245     0.08800
O601        O  0.79871157  0.33009226  0.82518513    -0.40000
O602        O  0.77709428  0.28828701  0.85974883    -0.39200
O603        O  0.92722620  0.29844160  0.88655714    -0.39200
O604        O  0.94418557  0.31630528  0.83643368    -0.36900
O605        O  0.90905252  0.37432906  0.00203478    -0.37800
O606        O  0.88582568  0.40118392  0.98078425    -0.33900
O607        O  0.93461834  0.39507809  0.82537865    -0.35300
O608        O  0.97825854  0.39219707  0.84123970    -0.39600
C609        C  0.42971802  0.11774618  0.63865868    -0.13300
C610        C  0.46120300  0.12168718  0.63155978     0.17000
C611        C  0.48953247  0.14611825  0.64854763     0.03300
C612        C  0.48623949  0.16666369  0.67176838    -0.11800
C613        C  0.45487235  0.16339847  0.67873108    -0.02900
C614        C  0.42631852  0.13840118  0.66194766     0.02600
C615        C  0.46484230  0.10145188  0.60528174     0.09400
N616        N  0.52187651  0.15014347  0.64261438     0.65800
H617        H  0.50846780  0.18520284  0.68444528     0.18700
N618        N  0.39389019  0.13429078  0.66736788     0.76200
H619        H  0.40787841  0.09912108  0.62555034     0.10200
C620        C  0.45766482  0.06856069  0.61134331     0.03900
C621        C  0.46638747  0.05201236  0.58778200    -0.04800
C622        C  0.48276769  0.06807608  0.55839423    -0.23200
C623        C  0.48766037  0.10005908  0.55133108     0.13100
C624        C  0.47860969  0.11646449  0.57472707    -0.12400
N625        N  0.44488822  0.05305795  0.64268612     0.64800
H626        H  0.46345707  0.02793529  0.59390730     0.12700
N627        N  0.50432140  0.11723397  0.52173196     0.61500
H628        H  0.48403563  0.14166458  0.56983187     0.08800
O629        O  0.37298080  0.11041723  0.68498367    -0.40000
O630        O  0.38442885  0.15101010  0.65039804    -0.39200
O631        O  0.54308867  0.17476651  0.62599678    -0.39200
O632        O  0.53097551  0.13244138  0.65837139    -0.36900
O633        O  0.48722215  0.11567259  0.49665107    -0.37800
O634        O  0.53503725  0.13880142  0.52270558    -0.33900
O635        O  0.41523722  0.02912024  0.64477899    -0.35300
O636        O  0.46471471  0.05935794  0.66671503    -0.39600
C637        C  0.46142994  0.35957224  0.91816297    -0.13300
C638        C  0.45551773  0.36227450  0.88450722     0.17000
C639        C  0.45443365  0.39054233  0.87331046     0.03300
C640        C  0.46160966  0.41666267  0.89530716    -0.11800
C641        C  0.47029603  0.41522287  0.92840958    -0.02900
C642        C  0.46889513  0.38584503  0.94012807     0.02600
C643        C  0.45393850  0.33717783  0.86075314     0.09400
N644        N  0.44966862  0.39456094  0.83897979     0.65800
H645        H  0.46358261  0.43950284  0.88577874     0.18700
N646        N  0.47826564  0.38374346  0.97340653     0.76200
H647        H  0.46220122  0.33782790  0.92696400     0.10200
C648        C  0.48313694  0.33663530  0.85192720     0.03900
C649        C  0.48150771  0.31352288  0.82860974    -0.04800
C650        C  0.45096234  0.29038120  0.81374955    -0.23200
C651        C  0.42163817  0.29102000  0.82279454     0.13100
C652        C  0.42343140  0.31445594  0.84597306    -0.12400
N653        N  0.51482641  0.36002221  0.86591716     0.64800
H654        H  0.50435724  0.31376330  0.82220299     0.12700
N655        N  0.38988868  0.26842005  0.80848890     0.61500
H656        H  0.40095479  0.31492863  0.85246024     0.08800
O657        O  0.50795709  0.39106500  0.97975310    -0.40000
O658        O  0.45586582  0.36910603  0.99502706    -0.39200
O659        O  0.42091649  0.38649265  0.82820371    -0.39200
O660        O  0.47412950  0.40574529  0.81929685    -0.36900
O661        O  0.37010662  0.24201238  0.82377508    -0.37800
O662        O  0.37924995  0.27774166  0.78425124    -0.33900
O663        O  0.52505921  0.35236640  0.89166502    -0.35300
O664        O  0.53458671  0.38588410  0.84987084    -0.39600
C665        C  0.43025917  0.31423034  0.63932734    -0.13300
C666        C  0.46067883  0.33263118  0.62238270     0.17000
C667        C  0.48701787  0.32639878  0.62918178     0.03300
C668        C  0.48294153  0.30278665  0.65321991    -0.11800
C669        C  0.45311291  0.28540112  0.67145712    -0.02900
C670        C  0.42624270  0.29072436  0.66367104     0.02600
C671        C  0.46655633  0.36186746  0.60208271     0.09400
N672        N  0.51907774  0.34590590  0.61403407     0.65800
H673        H  0.50383023  0.29911432  0.65856819     0.18700
N674        N  0.39566316  0.27448939  0.68188339     0.76200
H675        H  0.41013582  0.31928617  0.63475126     0.10200
C676        C  0.47099057  0.36320182  0.56743539     0.03900
C677        C  0.48136656  0.39334408  0.55036256    -0.04800
C678        C  0.48706712  0.42225794  0.56730639    -0.23200
C679        C  0.48111950  0.42024456  0.60181493     0.13100
C680        C  0.47099675  0.39028770  0.61872955    -0.12400
N681        N  0.46545906  0.33434452  0.54939037     0.64800
H682        H  0.48640155  0.39455098  0.52406496     0.12700
N683        N  0.48707162  0.44897511  0.62039765     0.61500
H684        H  0.46781101  0.38955680  0.64535301     0.08800
O685        O  0.37015463  0.25020092  0.66908833    -0.40000
O686        O  0.39248752  0.28822381  0.70750736    -0.39200
O687        O  0.53872554  0.37490019  0.62474057    -0.39200
O688        O  0.53025450  0.33194364  0.59531401    -0.36900
O689        O  0.50918757  0.46005454  0.64276336    -0.37800
O690        O  0.46624399  0.45903928  0.61894855    -0.33900
O691        O  0.43625132  0.31366380  0.53977929    -0.35300
O692        O  0.49002895  0.33316288  0.53730620    -0.39600
C693        C  0.52272533  0.86229606  0.34892344    -0.13300
C694        C  0.55236302  0.88265062  0.36635797     0.17000
C695        C  0.58105862  0.88049653  0.35937225     0.03300
C696        C  0.57989623  0.85860346  0.33464202    -0.11800
C697        C  0.55021651  0.83819130  0.31685893    -0.02900
C698        C  0.52131117  0.84016178  0.32449590     0.02600
C699        C  0.55260760  0.90715491  0.39016586     0.09400
N700        N  0.61140257  0.90010442  0.37739513     0.65800
H701        H  0.60226127  0.85734022  0.32965148     0.18700
N702        N  0.49048260  0.82060912  0.30716202     0.76200
H703        H  0.50059852  0.86400831  0.35398900     0.10200
C704        C  0.55806995  0.93830514  0.37883191     0.03900
C705        C  0.54879591  0.95721499  0.39865559    -0.04800
C706        C  0.53423643  0.94562309  0.42989825    -0.23200
C707        C  0.53122223  0.91569837  0.44222964     0.13100
C708        C  0.54038259  0.89670049  0.42232801    -0.12400
N709        N  0.56961378  0.94921447  0.34585377     0.64800
H710        H  0.55048163  0.97972606  0.38855562     0.12700
N711        N  0.51549249  0.90253572  0.47338038     0.61500
H712        H  0.53557038  0.87253116  0.43104006     0.08800
O713        O  0.46716331  0.79495595  0.32077221    -0.40000
O714        O  0.48440126  0.83228344  0.28148925    -0.39200
O715        O  0.61517283  0.89014793  0.40534043    -0.39200
O716        O  0.63633469  0.92360418  0.36305088    -0.36900
O717        O  0.48485112  0.88075008  0.47427869    -0.37800
O718        O  0.53322812  0.90830977  0.49903367    -0.33900
O719        O  0.54909761  0.94599111  0.32343701    -0.35300
O720        O  0.59984918  0.95979886  0.33856896    -0.39600
C721        C  0.57206747  0.69552207  0.13188631    -0.13300
C722        C  0.54311286  0.66402243  0.13044773     0.17000
C723        C  0.51680088  0.65638046  0.15263808     0.03300
C724        C  0.51951922  0.68010625  0.17570295    -0.11800
C725        C  0.54841411  0.71177314  0.17750010    -0.02900
C726        C  0.57498896  0.71937710  0.15525802     0.02600
C727        C  0.54005961  0.63881654  0.10598947     0.09400
N728        N  0.48703182  0.62443938  0.15198882     0.65800
H729        H  0.49889987  0.67348852  0.19249211     0.18700
N730        N  0.60467691  0.75137115  0.15541900     0.76200
H731        H  0.59236215  0.70159538  0.11482644     0.10200
C732        C  0.52628258  0.63702433  0.07435754     0.03900
C733        C  0.51667083  0.60882159  0.05447789    -0.04800
C734        C  0.52124808  0.58260314  0.06549878    -0.23200
C735        C  0.53788046  0.58587725  0.09574083     0.13100
C736        C  0.54672743  0.61366403  0.11600574    -0.12400
N737        N  0.51966875  0.66249578  0.06323276     0.64800
H738        H  0.50349534  0.60631652  0.03143602     0.12700
N739        N  0.54369746  0.55992992  0.10706492     0.61500
H740        H  0.55747714  0.61492322  0.14023840     0.08800
O741        O  0.60686181  0.77393552  0.13623103    -0.40000
O742        O  0.63055951  0.75503440  0.16991832    -0.39200
O743        O  0.46200534  0.62053254  0.13560122    -0.39200
O744        O  0.48387491  0.60203890  0.17196007    -0.36900
O745        O  0.56505660  0.55493577  0.09270962    -0.37800
O746        O  0.52595404  0.54055650  0.12990431    -0.33900
O747        O  0.54003038  0.68500745  0.04401728    -0.35300
O748        O  0.49147577  0.65975777  0.06856705    -0.39600
C749        C  0.55221760  0.61400377  0.36851548    -0.13300
C750        C  0.54868333  0.63935519  0.38377861     0.17000
C751        C  0.53838029  0.63528163  0.41723286     0.03300
C752        C  0.53048816  0.60575571  0.43420193    -0.11800
C753        C  0.53233883  0.57981240  0.41832592    -0.02900
C754        C  0.54402219  0.58438713  0.38544410     0.02600
C755        C  0.55116967  0.66721227  0.36297895     0.09400
N756        N  0.53419041  0.66017912  0.43388644     0.65800
H757        H  0.52089491  0.60222920  0.45907705     0.18700
N758        N  0.54549784  0.55821939  0.36818147     0.76200
H759        H  0.55920485  0.61619919  0.34285459     0.10200
C760        C  0.57937464  0.68709274  0.34307624     0.03900
C761        C  0.57897433  0.71024643  0.32079947    -0.04800
C762        C  0.55072728  0.71413681  0.31779549    -0.23200
C763        C  0.52287852  0.69486102  0.33843597     0.13100
C764        C  0.52318591  0.67150761  0.36040351    -0.12400
N765        N  0.60865565  0.68403032  0.34509025     0.64800
H766        H  0.60056674  0.72470664  0.30546693     0.12700
N767        N  0.49404409  0.69874585  0.33768331     0.61500
H768        H  0.50115235  0.65610043  0.37473473     0.08800
O769        O  0.52224263  0.53982272  0.34850109    -0.40000
O770        O  0.57253253  0.55763382  0.36777717    -0.39200
O771        O  0.50513387  0.65432260  0.44101380    -0.39200
O772        O  0.55915372  0.68451835  0.44731837    -0.36900
O773        O  0.49241774  0.71928303  0.35701243    -0.37800
O774        O  0.46818812  0.67784006  0.32225074    -0.33900
O775        O  0.61645068  0.67194566  0.32101176    -0.35300
O776        O  0.62968524  0.69891691  0.36787933    -0.39600
C777        C  0.61204146  0.06968783  0.87989464    -0.13300
C778        C  0.63946675  0.09656067  0.89543274     0.17000
C779        C  0.63706780  0.10282309  0.92922738     0.03300
C780        C  0.60680855  0.08365814  0.94626353    -0.11800
C781        C  0.57871349  0.05822170  0.93001078    -0.02900
C782        C  0.58178888  0.05069752  0.89680172     0.02600
C783        C  0.66742250  0.12106510  0.87441016     0.09400
N784        N  0.66472840  0.12951772  0.94609405     0.65800
H785        H  0.60467187  0.08987549  0.97160793     0.18700
N786        N  0.55359780  0.02539146  0.87921825     0.76200
H787        H  0.61333977  0.06492307  0.85388240     0.10200
C788        C  0.68840834  0.11259558  0.85675801     0.03900
C789        C  0.71131155  0.13504341  0.83357513    -0.04800
C790        C  0.71326911  0.16586634  0.82693552    -0.23200
C791        C  0.69223771  0.17428627  0.84500723     0.13100
C792        C  0.66995533  0.15210513  0.86858454    -0.12400
N793        N  0.68646312  0.08111900  0.86185370     0.64800
H794        H  0.72700939  0.12789601  0.82015890     0.12700
N795        N  0.69234766  0.20481739  0.83921037     0.61500
H796        H  0.65339829  0.15856612  0.88138130     0.08800
O797        O  0.54973091  0.99648087  0.87698213    -0.40000
O798        O  0.53632202  0.03336203  0.86116174    -0.39200
O799        O  0.66467782  0.15629884  0.95175359    -0.39200
O800        O  0.68613147  0.12426701  0.96012873    -0.36900
O801        O  0.67213549  0.20540717  0.81847015    -0.37800
O802        O  0.70715351  0.22864459  0.85935827    -0.33900
O803        O  0.67184733  0.05821718  0.84071374    -0.35300
O804        O  0.70425459  0.07830176  0.88398477    -0.39600
C805        C  0.46428035  0.10564057  0.92189161    -0.13300
C806        C  0.45417214  0.09632563  0.88892867     0.17000
C807        C  0.45097953  0.06629378  0.87685606     0.03300
C808        C  0.46021490  0.04742822  0.89683437    -0.11800
C809        C  0.47261207  0.05797456  0.92893084    -0.02900
C810        C  0.47345204  0.08663165  0.94194654     0.02600
C811        C  0.45335592  0.12079019  0.86564768     0.09400
N812        N  0.44085457  0.05606173  0.84343642     0.65800
H813        H  0.45998216  0.02573480  0.88643294     0.18700
N814        N  0.48667219  0.09839337  0.97430558     0.76200
H815        H  0.46723599  0.12888190  0.93130940     0.10200
C816        C  0.42585139  0.12596638  0.86315292     0.03900
C817        C  0.42581277  0.14802697  0.83911533    -0.04800
C818        C  0.45334206  0.16581386  0.81788636    -0.23200
C819        C  0.48128460  0.16115420  0.82129206     0.13100
C820        C  0.48092541  0.13874487  0.84484679    -0.12400
N821        N  0.39780549  0.10891942  0.88472289     0.64800
H822        H  0.40432043  0.15146015  0.83726389     0.12700
N823        N  0.50979955  0.17795726  0.80018575     0.61500
H824        H  0.50224291  0.13499261  0.84665395     0.08800
O825        O  0.46822897  0.08608710  0.99938852    -0.40000
O826        O  0.51745734  0.11886634  0.97803398    -0.39200
O827        O  0.46268421  0.06221623  0.82157025    -0.39200
O828        O  0.41045304  0.03605618  0.83707586    -0.36900
O829        O  0.53631348  0.20244415  0.81122618    -0.37800
O830        O  0.51050646  0.16469158  0.77314583    -0.33900
O831        O  0.39691534  0.12260693  0.91140609    -0.35300
O832        O  0.37175702  0.08333019  0.87455754    -0.39600
C833        C  0.53556255  0.92740651  0.12263918    -0.13300
C834        C  0.54215808  0.90419735  0.10717272     0.17000
C835        C  0.53858008  0.90030120  0.07244956     0.03300
C836        C  0.52657467  0.91800998  0.05415303    -0.11800
C837        C  0.51846383  0.94001012  0.06997997    -0.02900
C838        C  0.52395874  0.94532300  0.10438926     0.02600
C839        C  0.54721216  0.88078591  0.12840718     0.09400
N840        N  0.54605960  0.87767854  0.05561201     0.65800
H841        H  0.52208536  0.91341309  0.02793947     0.18700
N842        N  0.51565659  0.96722482  0.12151212     0.76200
H843        H  0.53745488  0.93017921  0.14918382     0.10200
C844        C  0.57287007  0.89221631  0.15240620     0.03900
C845        C  0.57373802  0.86973870  0.17521308    -0.04800
C846        C  0.54885180  0.83587722  0.17512865    -0.23200
C847        C  0.52345822  0.82439342  0.15078855     0.13100
C848        C  0.52292928  0.84676635  0.12768958    -0.12400
N849        N  0.59781621  0.92671418  0.15439910     0.64800
H850        H  0.59329505  0.87902751  0.19369635     0.12700
N851        N  0.49791008  0.79009137  0.14918377     0.61500
H852        H  0.50267596  0.83775505  0.11001545     0.08800
O853        O  0.48935337  0.95521297  0.13870473    -0.40000
O854        O  0.53734486  0.99768478  0.12439054    -0.39200
O855        O  0.52261902  0.85095200  0.04371735    -0.39200
O856        O  0.57588457  0.88711573  0.04755099    -0.36900
O857        O  0.46946381  0.78105008  0.16132535    -0.37800
O858        O  0.50180834  0.77035149  0.13068844    -0.33900
O859        O  0.59695577  0.94426369  0.17784600    -0.35300
O860        O  0.62379135  0.93777040  0.13683543    -0.39600
C861        C  0.29852509  0.87339273  0.13242596    -0.13300
C862        C  0.33018289  0.87611558  0.13136165     0.17000
C863        C  0.33881263  0.85982975  0.15562686     0.03300
C864        C  0.31562762  0.84048856  0.17996064    -0.11800
C865        C  0.28369239  0.83728490  0.18109176    -0.02900
C866        C  0.27530659  0.85423592  0.15713911     0.02600
C867        C  0.35454153  0.89634510  0.10531082     0.09400
N868        N  0.37139716  0.86331809  0.15630237     0.65800
H869        H  0.32283924  0.82820576  0.19826324     0.18700
N870        N  0.24296968  0.85123110  0.15671665     0.76200
H871        H  0.29178610  0.88591050  0.11396724     0.10200
C872        C  0.35960147  0.88108150  0.07747940     0.03900
C873        C  0.38728503  0.89958727  0.05688736    -0.04800
C874        C  0.40982542  0.93340128  0.06333835    -0.23200
C875        C  0.40315719  0.94926215  0.08955699     0.13100
C876        C  0.37572587  0.93064748  0.11045561    -0.12400
N877        N  0.33768252  0.84646112  0.07077595     0.64800
H878        H  0.39237056  0.88706779  0.03703054     0.12700
N879        N  0.42560909  0.98361910  0.09679500     0.61500
H880        H  0.37200880  0.94257698  0.13176561     0.08800
O881        O  0.22029802  0.82955886  0.13847830    -0.40000
O882        O  0.23894964  0.87377178  0.16966420    -0.39200
O883        O  0.39391425  0.88560794  0.17418686    -0.39200
O884        O  0.37562312  0.84040860  0.14467427    -0.36900
O885        O  0.44813494  0.99156003  0.11841390    -0.37800
O886        O  0.42027149  0.00569563  0.08469524    -0.33900
O887        O  0.31233510  0.83772907  0.05263500    -0.35300
O888        O  0.34665851  0.82552898  0.07789217    -0.39600
loop_ 
_geom_bond_atom_site_label_1 
_geom_bond_atom_site_label_2 
_geom_bond_distance 
_geom_bond_site_symmetry_2 
_ccdc_geom_bond_type 
C1            C2   1.395       .  A
C1            C6   1.415       .  A
C1          C874   1.484       .  S
C2            C3   1.396       .  A
C2           H21   1.085       .  S
C3            C4   1.417       .  A
C3          C837   1.487       .  S
C4            C5   1.423       .  A
C4           C11   1.406       .  A
C5            C6   1.423       .  A
C5           C10   1.422   1_564  A
C6            C7   1.405       .  A
C7            C8   1.396   1_564  A
C7           H17   1.083       .  S
C8            C9   1.406       .  A
C8           H18   1.083       .  S
C9           C10   1.422       .  A
C9           C16   1.415       .  A
C10          C13   1.424       .  A
C11          C12   1.396   1_564  A
C11          H19   1.082       .  S
C12          C13   1.405       .  A
C12          H20   1.083       .  S
C13          C14   1.417       .  A
C14          C15   1.397       .  A
C14         C781   1.488       .  S
C15          C16   1.397       .  A
C15          H22   1.085       .  S
C16         C809   1.484       .  S
O23          V31   1.910       .  S
O23          C33   1.266       .  A
O24          V31   1.907       .  S
O24          C34   1.267       .  A
O25          V31   1.905       .  S
O25          C35   1.266       .  A
O26          V31   1.904       .  S
O26          C36   1.265       .  A
O27          V32   1.901       .  S
O27          C36   1.265       .  A
O28          V32   1.902       .  S
O28          C35   1.265       .  A
O29          V32   1.902       .  S
O29          C34   1.265       .  A
O30          V32   1.897       .  S
O30          C33   1.265       .  A
V31          V32   2.083       .  T
C33         C725   1.489       .  S
C34         C697   1.493       .  S
C35         C762   1.490       .  S
C36         C846   1.483       .  S
O37          V45   1.895       .  S
O37          C47   1.265       .  A
O38          V45   1.899       .  S
O38          C48   1.265       .  A
O39          V45   1.897       .  S
O39          C49   1.264       .  A
O40          V45   1.896       .  S
O40          C50   1.264       .  A
O41          V46   1.914       .  S
O41          C50   1.267       .  A
O42          V46   1.914       .  S
O42          C49   1.268       .  A
O43          V46   1.907       .  S
O43          C48   1.266       .  A
O44          V46   1.908       .  S
O44          C47   1.266       .  A
V45          V46   2.084       .  T
C47         C613   1.490       .  S
C48         C650   1.491       .  S
C49         C818   1.490       .  S
C50         C669   1.491       .  S
O51          V59   1.912       .  S
O51          C61   1.268       .  A
O52          V59   1.911       .  S
O52          C62   1.267       .  A
O53          V59   1.910       .  S
O53          C63   1.267       .  A
O54          V59   1.910       .  S
O54          C64   1.267       .  A
O55          V60   1.893       .  S
O55          C64   1.264       .  A
O56          V60   1.894       .  S
O56          C63   1.263       .  A
O57          V60   1.896       .  S
O57          C62   1.265       .  A
O58          V60   1.898       .  S
O58          C61   1.264       .  A
V59          V60   2.083       .  T
C61         C790   1.493       .  S
C62         C557   1.492       .  S
C63         C585   1.488       .  S
C64         C529   1.487       .  S
O65          V73   1.891       .  S
O65          C75   1.264       .  A
O66          V73   1.891       .  S
O66          C76   1.263       .  A
O67          V73   1.891       .  S
O67          C77   1.263       .  A
O68          V73   1.891       .  S
O68          C78   1.264       .  A
O69          V74   1.915       .  S
O69          C78   1.267       .  A
O70          V74   1.917       .  S
O70          C77   1.268       .  A
O71          V74   1.918       .  S
O71          C76   1.268       .  A
O72          V74   1.917       .  S
O72          C75   1.268       .  A
V73          V74   2.083       .  T
C75         C501   1.494       .  S
C76         C865   1.487       .  S
C77         C454   1.491       .  S
C78         C473   1.491       .  S
C79          C80   1.398       .  A
C79          C84   1.415       .  A
C79         C417   1.486       .  S
C80          C81   1.399       .  A
C80          H99   1.085       .  S
C81          C82   1.416       .  A
C81         C594   1.488       .  S
C82          C83   1.423       .  A
C82          C89   1.405       .  A
C83          C84   1.421       .  A
C83          C88   1.422   1_656  A
C84          C85   1.407       .  A
C85          C86   1.394   1_656  A
C85          H95   1.082       .  S
C86          C87   1.404       .  A
C86          H96   1.083       .  S
C87          C88   1.423       .  A
C87          C94   1.416       .  A
C88          C91   1.421       .  A
C89          C90   1.395   1_656  A
C89          H97   1.083       .  S
C90          C91   1.406       .  A
C90          H98   1.082       .  S
C91          C92   1.414       .  A
C92          C93   1.395       .  A
C92         C398   1.481       .  S
C93          C94   1.396       .  A
C93         H100   1.086       .  S
C94         C482   1.486       .  S
C101        C102   1.399       .  A
C101        C106   1.418       .  A
C101        C566   1.489       .  S
C102        C103   1.396       .  A
C102        H121   1.086       .  S
C103        C104   1.412       .  A
C103        C361   1.482       .  S
C104        C105   1.422       .  A
C104        C111   1.405       .  A
C105        C106   1.424       .  A
C105        C110   1.422   1_655  A
C106        C107   1.405       .  A
C107        C108   1.398   1_655  A
C107        H117   1.083       .  S
C108        C109   1.406       .  A
C108        H118   1.082       .  S
C109        C110   1.424       .  A
C109        C116   1.419       .  A
C110        C113   1.424       .  A
C111        C112   1.394   1_655  A
C111        H119   1.083       .  S
C112        C113   1.404       .  A
C112        H120   1.083       .  S
C113        C114   1.413       .  A
C114        C115   1.394       .  A
C114        C510   1.484       .  S
C115        C116   1.399       .  A
C115        H122   1.086       .  S
C116        C333   1.489       .  S
O123        V131   1.897       .  S
O123        C133   1.265       .  A
O124        V131   1.904       .  S
O124        C134   1.265       .  A
O125        V131   1.901       .  S
O125        C135   1.265       .  A
O126        V131   1.901       .  S
O126        C136   1.266       .  A
O127        V132   1.912       .  S
O127        C136   1.267       .  A
O128        V132   1.904       .  S
O128        C135   1.265       .  A
O129        V132   1.908       .  S
O129        C134   1.268       .  A
O130        V132   1.909       .  S
O130        C133   1.266       .  A
V131        V132   2.081       .  T
C133        C342   1.485       .  S
C134        C277   1.495       .  S
C135        C389   1.480       .  S
C136        C314   1.492       .  S
O137        V145   1.914       .  S
O137        C147   1.268       .  A
O138        V145   1.915       .  S
O138        C148   1.267       .  A
O139        V145   1.909       .  S
O139        C149   1.267       .  A
O140        V145   1.910       .  S
O140        C150   1.267       .  A
O141        V146   1.895       .  S
O141        C150   1.264       .  A
O142        V146   1.898       .  S
O142        C149   1.264       .  A
O143        V146   1.890       .  S
O143        C148   1.263       .  A
O144        V146   1.890       .  S
O144        C147   1.263       .  A
V145        V146   2.083       .  T
C147        C230   1.490       .  S
C148        C370   1.483       .  S
C149        C258   1.493       .  S
C150        C426   1.489       .  S
C151        C152   1.397       .  A
C151        C156   1.413       .  A
C151        C734   1.483       .  S
C152        C153   1.397       .  A
C152        H171   1.086       .  S
C153        C154   1.418       .  A
C153        C286   1.489       .  S
C154        C155   1.425       .  A
C154        C161   1.406       .  A
C155        C156   1.422       .  A
C155        C160   1.422   1_554  A
C156        C157   1.406       .  A
C157        C158   1.396   1_554  A
C157        H167   1.083       .  S
C158        C159   1.405       .  A
C158        H168   1.083       .  S
C159        C160   1.425       .  A
C159        C166   1.415       .  A
C160        C163   1.423       .  A
C161        C162   1.398   1_554  A
C161        H169   1.083       .  S
C162        C163   1.405       .  A
C162        H170   1.082       .  S
C163        C164   1.416       .  A
C164        C165   1.394       .  A
C164        C641   1.482       .  S
C165        C166   1.393       .  A
C165        H172   1.087       .  S
C166        C221   1.484       .  S
C173        C174   1.396       .  A
C173        C178   1.417       .  A
C173        C305   1.485       .  S
C174        C175   1.395       .  A
C174        H193   1.085       .  S
C175        C176   1.416       .  A
C175        C753   1.486       .  S
C176        C177   1.424       .  A
C176        C183   1.405       .  A
C177        C178   1.423       .  A
C177        C182   1.424       .  A
C178        C179   1.405       .  A
C179        C180   1.398       .  A
C179        H189   1.083       .  S
C180        C181   1.407       .  A
C180        H190   1.082       .  S
C181        C182   1.425       .  A
C181        C188   1.421       .  A
C182        C185   1.423       .  A
C183        C184   1.396       .  A
C183        H191   1.083       .  S
C184        C185   1.405       .  A
C184        H192   1.082       .  S
C185        C186   1.414       .  A
C186        C187   1.395       .  A
C186        C249   1.484       .  S
C187        C188   1.399       .  A
C187        H194   1.085       .  S
C188        C678   1.494       .  S
C195        C196   1.397       .  A
C195        C200   1.417       .  A
C195        C706   1.487       .  S
C196        C197   1.396       .  A
C196        H215   1.086       .  S
C197        C198   1.413       .  A
C197        C445   1.483       .  S
C198        C199   1.422       .  A
C198        C205   1.406       .  A
C199        C200   1.425       .  A
C199        C204   1.421   1_565  A
C200        C201   1.405       .  A
C201        C202   1.398   1_565  A
C201        H211   1.083       .  S
C202        C203   1.406       .  A
C202        H212   1.083       .  S
C203        C204   1.422       .  A
C203        C210   1.415       .  A
C204        C207   1.425       .  A
C205        C206   1.396   1_565  A
C205        H213   1.083       .  S
C206        C207   1.404       .  A
C206        H214   1.083       .  S
C207        C208   1.414       .  A
C208        C209   1.393       .  A
C208        C622   1.482       .  S
C209        C210   1.394       .  A
C209        H216   1.087       .  S
C210        C538   1.480       .  S
C217        C218   1.404       .  A
C217        C222   1.403       .  A
C217        H227   1.083       .  S
C218        C219   1.411       .  A
C218        C223   1.485       .  S
C219        C220   1.401       .  A
C219        N224   1.431       .  S
C220        C221   1.403       .  A
C220        H225   1.083       .  S
C221        C222   1.408       .  A
C222        N226   1.428       .  S
C223        C228   1.411       .  A
C223        C232   1.402       .  A
N224        O239   1.262       .  A
N224        O240   1.262       .  A
N226        O237   1.262       .  A
N226        O238   1.262       .  A
C228        C229   1.399       .  A
C228        N233   1.432       .  S
C229        C230   1.407       .  A
C229        H234   1.082       .  S
C230        C231   1.415       .  A
C231        C232   1.405       .  A
C231        N235   1.428       .  S
C232        H236   1.082       .  S
N233        O243   1.262       .  A
N233        O244   1.262       .  A
N235        O241   1.262       .  A
N235        O242   1.262       .  A
C245        C246   1.405       .  A
C245        C250   1.403       .  A
C245        H255   1.080       .  S
C246        C247   1.412       .  A
C246        C251   1.490       .  S
C247        C248   1.402       .  A
C247        N252   1.429       .  S
C248        C249   1.401       .  A
C248        H253   1.081       .  S
C249        C250   1.409       .  A
C250        N254   1.429       .  S
C251        C256   1.409       .  A
C251        C260   1.402       .  A
N252        O267   1.262       .  A
N252        O268   1.262       .  A
N254        O265   1.261       .  A
N254        O266   1.261       .  A
C256        C257   1.406       .  A
C256        N261   1.429       .  S
C257        C258   1.409       .  A
C257        H262   1.081       .  S
C258        C259   1.417       .  A
C259        C260   1.400       .  A
C259        N263   1.429       .  S
C260        H264   1.081       .  S
N261        O271   1.262       .  A
N261        O272   1.262       .  A
N263        O269   1.262       .  A
N263        O270   1.262       .  A
C273        C274   1.403       .  A
C273        C278   1.404       .  A
C273        H283   1.083       .  S
C274        C275   1.409       .  A
C274        C279   1.489       .  S
C275        C276   1.404       .  A
C275        N280   1.428       .  S
C276        C277   1.408       .  A
C276        H281   1.083       .  S
C277        C278   1.418       .  A
C278        N282   1.429       .  S
C279        C284   1.412       .  A
C279        C288   1.402       .  A
N280        O295   1.262       .  A
N280        O296   1.262       .  A
N282        O293   1.262       .  A
N282        O294   1.262       .  A
C284        C285   1.407       .  A
C284        N289   1.428       .  S
C285        C286   1.404       .  A
C285        H290   1.082       .  S
C286        C287   1.411       .  A
C287        C288   1.401       .  A
C287        N291   1.429       .  S
C288        H292   1.082       .  S
N289        O299   1.262       .  A
N289        O300   1.262       .  A
N291        O297   1.262       .  A
N291        O298   1.261       .  A
C301        C302   1.404       .  A
C301        C306   1.406       .  A
C301        H311   1.083       .  S
C302        C303   1.409       .  A
C302        C307   1.485       .  S
C303        C304   1.402       .  A
C303        N308   1.429       .  S
C304        C305   1.403       .  A
C304        H309   1.083       .  S
C305        C306   1.409       .  A
C306        N310   1.429       .  S
C307        C312   1.407       .  A
C307        C316   1.402       .  A
N308        O323   1.261       .  A
N308        O324   1.262       .  A
N310        O321   1.262       .  A
N310        O322   1.262       .  A
C312        C313   1.401       .  A
C312        N317   1.429       .  S
C313        C314   1.407       .  A
C313        H318   1.082       .  S
C314        C315   1.416       .  A
C315        C316   1.408       .  A
C315        N319   1.428       .  S
C316        H320   1.082       .  S
N317        O327   1.262       .  A
N317        O328   1.261       .  A
N319        O325   1.262       .  A
N319        O326   1.262       .  A
C329        C330   1.406       .  A
C329        C334   1.406       .  A
C329        H339   1.081       .  S
C330        C331   1.410       .  A
C330        C335   1.488       .  S
C331        C332   1.398       .  A
C331        N336   1.430       .  S
C332        C333   1.405       .  A
C332        H337   1.082       .  S
C333        C334   1.411       .  A
C334        N338   1.429       .  S
C335        C340   1.410       .  A
C335        C344   1.404       .  A
N336        O351   1.262       .  A
N336        O352   1.262       .  A
N338        O349   1.262       .  A
N338        O350   1.262       .  A
C340        C341   1.401       .  A
C340        N345   1.429       .  S
C341        C342   1.405       .  A
C341        H346   1.082       .  S
C342        C343   1.414       .  A
C343        C344   1.404       .  A
C343        N347   1.429       .  S
C344        H348   1.081       .  S
N345        O355   1.262       .  A
N345        O356   1.262       .  A
N347        O353   1.262       .  A
N347        O354   1.262       .  A
C357        C358   1.402       .  A
C357        C362   1.401       .  A
C357        H367   1.082       .  S
C358        C359   1.409       .  A
C358        C363   1.480       .  S
C359        C360   1.402       .  A
C359        N364   1.428       .  S
C360        C361   1.402       .  A
C360        H365   1.082       .  S
C361        C362   1.408       .  A
C362        N366   1.428       .  S
C363        C368   1.406       .  A
C363        C372   1.404       .  A
N364        O379   1.262       .  A
N364        O380   1.262       .  A
N366        O377   1.262       .  A
N366        O378   1.262   1_655  A
C368        C369   1.395       .  A
C368        N373   1.429       .  S
C369        C370   1.404       .  A
C369        H374   1.082       .  S
C370        C371   1.414       .  A
C371        C372   1.408       .  A
C371        N375   1.428       .  S
C372        H376   1.082       .  S
N373        O383   1.262       .  A
N373        O384   1.262       .  A
N375        O381   1.262       .  A
N375        O382   1.262       .  A
C385        C386   1.404       .  A
C385        C390   1.401       .  A
C385        H395   1.083       .  S
C386        C387   1.410       .  A
C386        C391   1.487       .  S
C387        C388   1.403       .  A
C387        N392   1.428       .  S
C388        C389   1.404       .  A
C388        H393   1.083       .  S
C389        C390   1.412       .  A
C390        N394   1.430       .  S
C391        C396   1.412       .  A
C391        C400   1.405       .  A
N392        O407   1.262       .  A
N392        O408   1.262       .  A
N394        O405   1.262       .  A
N394        O406   1.262       .  A
C396        C397   1.402       .  A
C396        N401   1.430       .  S
C397        C398   1.402       .  A
C397        H402   1.082       .  S
C398        C399   1.407       .  A
C399        C400   1.400       .  A
C399        N403   1.429       .  S
C400        H404   1.081       .  S
N401        O411   1.262       .  A
N401        O412   1.262       .  A
N403        O409   1.261       .  A
N403        O410   1.262       .  A
C413        C414   1.404       .  A
C413        C418   1.402       .  A
C413        H423   1.080       .  S
C414        C415   1.411       .  A
C414        C419   1.486       .  S
C415        C416   1.401       .  A
C415        N420   1.429       .  S
C416        C417   1.402       .  A
C416        H421   1.081       .  S
C417        C418   1.410       .  A
C418        N422   1.429       .  S
C419        C424   1.409       .  A
C419        C428   1.401       .  A
N420        O435   1.262       .  A
N420        O436   1.262       .  A
N422        O433   1.262       .  A
N422        O434   1.262   1_655  A
C424        C425   1.406       .  A
C424        N429   1.429       .  S
C425        C426   1.408       .  A
C425        H430   1.081       .  S
C426        C427   1.415       .  A
C427        C428   1.398       .  A
C427        N431   1.429       .  S
C428        H432   1.081       .  S
N429        O439   1.262       .  A
N429        O440   1.262       .  A
N431        O437   1.262       .  A
N431        O438   1.262       .  A
C441        C442   1.403       .  A
C441        C446   1.401       .  A
C441        H451   1.083       .  S
C442        C443   1.410       .  A
C442        C447   1.484       .  S
C443        C444   1.404       .  A
C443        N448   1.428       .  S
C444        C445   1.402       .  A
C444        H449   1.083       .  S
C445        C446   1.408       .  A
C446        N450   1.431       .  S
C447        C452   1.406       .  A
C447        C456   1.403       .  A
N448        O463   1.262       .  A
N448        O464   1.262       .  A
N450        O461   1.262       .  A
N450        O462   1.262       .  A
C452        C453   1.398       .  A
C452        N457   1.429       .  S
C453        C454   1.408       .  A
C453        H458   1.082       .  S
C454        C455   1.415       .  A
C455        C456   1.408       .  A
C455        N459   1.428       .  S
C456        H460   1.082       .  S
N457        O467   1.262       .  A
N457        O468   1.262       .  A
N459        O465   1.262       .  A
N459        O466   1.262       .  A
C469        C470   1.405       .  A
C469        C474   1.408       .  A
C469        H479   1.080       .  S
C470        C471   1.409       .  A
C470        C475   1.489       .  S
C471        C472   1.397       .  A
C471        N476   1.430       .  S
C472        C473   1.406       .  A
C472        H477   1.080       .  S
C473        C474   1.415       .  A
C474        N478   1.428       .  S
C475        C480   1.411       .  A
C475        C484   1.406       .  A
N476        O491   1.262       .  A
N476        O492   1.262       .  A
N478        O489   1.262       .  A
N478        O490   1.262       .  A
C480        C481   1.402       .  A
C480        N485   1.429       .  S
C481        C482   1.404       .  A
C481        H486   1.081       .  S
C482        C483   1.409       .  A
C483        C484   1.402       .  A
C483        N487   1.429       .  S
C484        H488   1.080       .  S
N485        O495   1.262       .  A
N485        O496   1.262       .  A
N487        O493   1.262       .  A
N487        O494   1.262       .  A
C497        C498   1.403       .  A
C497        C502   1.409       .  A
C497        H507   1.081       .  S
C498        C499   1.407       .  A
C498        C503   1.484       .  S
C499        C500   1.398       .  A
C499        N504   1.431       .  S
C500        C501   1.408       .  A
C500        H505   1.081       .  S
C501        C502   1.416       .  A
C502        N506   1.428       .  S
C503        C508   1.411       .  A
C503        C512   1.402       .  A
N504        O519   1.262       .  A
N504        O520   1.262       .  A
N506        O517   1.262       .  A
N506        O518   1.262       .  A
C508        C509   1.404       .  A
C508        N513   1.429       .  S
C509        C510   1.402       .  A
C509        H514   1.082       .  S
C510        C511   1.410       .  A
C511        C512   1.401       .  A
C511        N515   1.428       .  S
C512        H516   1.082       .  S
N513        O523   1.262       .  A
N513        O524   1.262       .  A
N515        O521   1.262       .  A
N515        O522   1.262   1_455  A
C525        C526   1.401       .  A
C525        C530   1.405       .  A
C525        H535   1.081       .  S
C526        C527   1.408       .  A
C526        C531   1.479       .  S
C527        C528   1.398       .  A
C527        N532   1.430       .  S
C528        C529   1.407       .  A
C528        H533   1.081       .  S
C529        C530   1.415       .  A
C530        N534   1.428       .  S
C531        C536   1.409       .  A
C531        C540   1.402       .  A
N532        O547   1.262       .  A
N532        O548   1.262       .  A
N534        O545   1.262       .  A
N534        O546   1.262       .  A
C536        C537   1.400       .  A
C536        N541   1.429       .  S
C537        C538   1.403       .  A
C537        H542   1.082       .  S
C538        C539   1.409       .  A
C539        C540   1.402       .  A
C539        N543   1.428       .  S
C540        H544   1.082       .  S
N541        O551   1.262       .  A
N541        O552   1.262       .  A
N543        O549   1.262   1_545  A
N543        O550   1.262       .  A
C553        C554   1.403       .  A
C553        C558   1.407       .  A
C553        H563   1.081       .  S
C554        C555   1.406       .  A
C554        C559   1.484       .  S
C555        C556   1.398       .  A
C555        N560   1.429       .  S
C556        C557   1.407       .  A
C556        H561   1.081       .  S
C557        C558   1.417       .  A
C558        N562   1.429       .  S
C559        C564   1.407       .  A
C559        C568   1.404       .  A
N560        O575   1.262       .  A
N560        O576   1.262       .  A
N562        O573   1.262       .  A
N562        O574   1.262       .  A
C564        C565   1.401       .  A
C564        N569   1.429       .  S
C565        C566   1.405       .  A
C565        H570   1.083       .  S
C566        C567   1.411       .  A
C567        C568   1.406       .  A
C567        N571   1.428       .  S
C568        H572   1.082       .  S
N569        O579   1.261       .  A
N569        O580   1.262       .  A
N571        O577   1.262       .  A
N571        O578   1.262       .  A
C581        C582   1.401       .  A
C581        C586   1.397       .  A
C581        H591   1.084       .  S
C582        C583   1.411       .  A
C582        C587   1.486       .  S
C583        C584   1.407       .  A
C583        N588   1.429       .  S
C584        C585   1.408       .  A
C584        H589   1.083       .  S
C585        C586   1.415       .  A
C586        N590   1.429       .  S
C587        C592   1.412       .  A
C587        C596   1.405       .  A
N588        O603   1.262       .  A
N588        O604   1.262       .  A
N590        O601   1.262       .  A
N590        O602   1.262       .  A
C592        C593   1.402       .  A
C592        N597   1.430       .  S
C593        C594   1.404       .  A
C593        H598   1.083       .  S
C594        C595   1.410       .  A
C595        C596   1.402       .  A
C595        N599   1.429       .  S
C596        H600   1.083       .  S
N597        O607   1.262       .  A
N597        O608   1.262       .  A
N599        O605   1.262   1_556  A
N599        O606   1.262       .  A
C609        C610   1.401       .  A
C609        C614   1.406       .  A
C609        H619   1.081       .  S
C610        C611   1.406       .  A
C610        C615   1.481       .  S
C611        C612   1.398       .  A
C611        N616   1.430       .  S
C612        C613   1.407       .  A
C612        H617   1.081       .  S
C613        C614   1.417       .  A
C614        N618   1.429       .  S
C615        C620   1.407       .  A
C615        C624   1.403       .  A
N616        O631   1.262       .  A
N616        O632   1.262       .  A
N618        O629   1.262       .  A
N618        O630   1.262       .  A
C620        C621   1.402       .  A
C620        N625   1.428       .  S
C621        C622   1.404       .  A
C621        H626   1.081       .  S
C622        C623   1.410       .  A
C623        C624   1.402       .  A
C623        N627   1.429       .  S
C624        H628   1.081       .  S
N625        O635   1.261       .  A
N625        O636   1.262       .  A
N627        O633   1.262       .  A
N627        O634   1.262       .  A
C637        C638   1.403       .  A
C637        C642   1.402       .  A
C637        H647   1.084       .  S
C638        C639   1.407       .  A
C638        C643   1.481       .  S
C639        C640   1.401       .  A
C639        N644   1.429       .  S
C640        C641   1.405       .  A
C640        H645   1.084       .  S
C641        C642   1.409       .  A
C642        N646   1.428       .  S
C643        C648   1.407       .  A
C643        C652   1.400       .  A
N644        O659   1.261       .  A
N644        O660   1.262       .  A
N646        O657   1.262       .  A
N646        O658   1.262       .  A
C648        C649   1.400       .  A
C648        N653   1.430       .  S
C649        C650   1.408       .  A
C649        H654   1.081       .  S
C650        C651   1.417       .  A
C651        C652   1.404       .  A
C651        N655   1.428       .  S
C652        H656   1.081       .  S
N653        O663   1.262       .  A
N653        O664   1.262       .  A
N655        O661   1.262       .  A
N655        O662   1.262       .  A
C665        C666   1.404       .  A
C665        C670   1.406       .  A
C665        H675   1.080       .  S
C666        C667   1.409       .  A
C666        C671   1.485       .  S
C667        C668   1.401       .  A
C667        N672   1.430       .  S
C668        C669   1.407       .  A
C668        H673   1.080       .  S
C669        C670   1.414       .  A
C670        N674   1.428       .  S
C671        C676   1.411       .  A
C671        C680   1.399       .  A
N672        O687   1.262       .  A
N672        O688   1.262       .  A
N674        O685   1.262       .  A
N674        O686   1.262       .  A
C676        C677   1.407       .  A
C676        N681   1.429       .  S
C677        C678   1.406       .  A
C677        H682   1.083       .  S
C678        C679   1.414       .  A
C679        C680   1.399       .  A
C679        N683   1.429       .  S
C680        H684   1.083       .  S
N681        O691   1.262       .  A
N681        O692   1.262       .  A
N683        O689   1.262       .  A
N683        O690   1.261       .  A
C693        C694   1.401       .  A
C693        C698   1.401       .  A
C693        H703   1.083       .  S
C694        C695   1.406       .  A
C694        C699   1.484       .  S
C695        C696   1.405       .  A
C695        N700   1.428       .  S
C696        C697   1.410       .  A
C696        H701   1.082       .  S
C697        C698   1.417       .  A
C698        N702   1.429       .  S
C699        C704   1.409       .  A
C699        C708   1.402       .  A
N700        O715   1.262       .  A
N700        O716   1.262       .  A
N702        O713   1.262       .  A
N702        O714   1.262       .  A
C704        C705   1.403       .  A
C704        N709   1.429       .  S
C705        C706   1.404       .  A
C705        H710   1.084       .  S
C706        C707   1.410       .  A
C707        C708   1.405       .  A
C707        N711   1.428       .  S
C708        H712   1.084       .  S
N709        O719   1.262       .  A
N709        O720   1.262       .  A
N711        O717   1.262       .  A
N711        O718   1.262       .  A
C721        C722   1.402       .  A
C721        C726   1.408       .  A
C721        H731   1.082       .  S
C722        C723   1.406       .  A
C722        C727   1.481       .  S
C723        C724   1.398       .  A
C723        N728   1.429       .  S
C724        C725   1.406       .  A
C724        H729   1.082       .  S
C725        C726   1.417       .  A
C726        N730   1.428       .  S
C727        C732   1.409       .  A
C727        C736   1.403       .  A
N728        O743   1.262       .  A
N728        O744   1.262       .  A
N730        O741   1.262       .  A
N730        O742   1.262       .  A
C732        C733   1.403       .  A
C732        N737   1.429       .  S
C733        C734   1.403       .  A
C733        H738   1.084       .  S
C734        C735   1.408       .  A
C735        C736   1.402       .  A
C735        N739   1.429       .  S
C736        H740   1.084       .  S
N737        O747   1.262       .  A
N737        O748   1.262       .  A
N739        O745   1.262       .  A
N739        O746   1.261       .  A
C749        C750   1.406       .  A
C749        C754   1.403       .  A
C749        H759   1.075       .  S
C750        C751   1.414       .  A
C750        C755   1.493       .  S
C751        C752   1.403       .  A
C751        N756   1.429       .  S
C752        C753   1.402       .  A
C752        H757   1.077       .  S
C753        C754   1.409       .  A
C754        N758   1.429       .  S
C755        C760   1.411       .  A
C755        C764   1.405       .  A
N756        O771   1.262       .  A
N756        O772   1.261       .  A
N758        O769   1.262       .  A
N758        O770   1.262       .  A
C760        C761   1.404       .  A
C760        N765   1.429       .  S
C761        C762   1.407       .  A
C761        H766   1.076       .  S
C762        C763   1.414       .  A
C763        C764   1.402       .  A
C763        N767   1.429       .  S
C764        H768   1.074       .  S
N765        O775   1.262       .  A
N765        O776   1.262       .  A
N767        O773   1.262       .  A
N767        O774   1.262       .  A
C777        C778   1.402       .  A
C777        C782   1.401       .  A
C777        H787   1.081       .  S
C778        C779   1.411       .  A
C778        C783   1.487       .  S
C779        C780   1.405       .  A
C779        N784   1.429       .  S
C780        C781   1.403       .  A
C780        H785   1.081       .  S
C781        C782   1.411       .  A
C782        N786   1.429       .  S
C783        C788   1.408       .  A
C783        C792   1.401       .  A
N784        O799   1.262       .  A
N784        O800   1.262       .  A
N786        O797   1.261   1_545  A
N786        O798   1.262       .  A
C788        C789   1.406       .  A
C788        N793   1.428       .  S
C789        C790   1.408       .  A
C789        H794   1.082       .  S
C790        C791   1.417       .  A
C791        C792   1.401       .  A
C791        N795   1.429       .  S
C792        H796   1.082       .  S
N793        O803   1.262       .  A
N793        O804   1.262       .  A
N795        O801   1.262       .  A
N795        O802   1.261       .  A
C805        C806   1.404       .  A
C805        C810   1.406       .  A
C805        H815   1.084       .  S
C806        C807   1.410       .  A
C806        C811   1.485       .  S
C807        C808   1.400       .  A
C807        N812   1.428       .  S
C808        C809   1.401       .  A
C808        H813   1.084       .  S
C809        C810   1.410       .  A
C810        N814   1.429       .  S
C811        C816   1.408       .  A
C811        C820   1.400       .  A
N812        O827   1.262       .  A
N812        O828   1.262       .  A
N814        O825   1.262       .  A
N814        O826   1.262       .  A
C816        C817   1.408       .  A
C816        N821   1.428       .  S
C817        C818   1.408       .  A
C817        H822   1.082       .  S
C818        C819   1.416       .  A
C819        C820   1.399       .  A
C819        N823   1.429       .  S
C820        H824   1.083       .  S
N821        O831   1.262       .  A
N821        O832   1.262       .  A
N823        O829   1.262       .  A
N823        O830   1.262       .  A
C833        C834   1.402       .  A
C833        C838   1.399       .  A
C833        H843   1.078       .  S
C834        C835   1.412       .  A
C834        C839   1.487       .  S
C835        C836   1.405       .  A
C835        N840   1.429       .  S
C836        C837   1.403       .  A
C836        H841   1.079       .  S
C837        C838   1.411       .  A
C838        N842   1.430       .  S
C839        C844   1.411       .  A
C839        C848   1.404       .  A
N840        O855   1.262       .  A
N840        O856   1.262       .  A
N842        O853   1.262       .  A
N842        O854   1.261       .  A
C844        C845   1.403       .  A
C844        N849   1.429       .  S
C845        C846   1.405       .  A
C845        H850   1.080       .  S
C846        C847   1.412       .  A
C847        C848   1.401       .  A
C847        N851   1.429       .  S
C848        H852   1.079       .  S
N849        O859   1.262       .  A
N849        O860   1.262       .  A
N851        O857   1.262       .  A
N851        O858   1.262       .  A
C861        C862   1.403       .  A
C861        C866   1.408       .  A
C861        H871   1.079       .  S
C862        C863   1.407       .  A
C862        C867   1.482       .  S
C863        C864   1.398       .  A
C863        N868   1.430       .  S
C864        C865   1.406       .  A
C864        H869   1.080       .  S
C865        C866   1.414       .  A
C866        N870   1.428       .  S
C867        C872   1.409       .  A
C867        C876   1.402       .  A
N868        O883   1.262       .  A
N868        O884   1.261       .  A
N870        O881   1.262       .  A
N870        O882   1.262       .  A
C872        C873   1.402       .  A
C872        N877   1.429       .  S
C873        C874   1.404       .  A
C873        H878   1.083       .  S
C874        C875   1.409       .  A
C875        C876   1.403       .  A
C875        N879   1.428       .  S
C876        H880   1.082       .  S
N877        O887   1.262       .  A
N877        O888   1.262       .  A
N879        O885   1.262       .  A
N879        O886   1.262   1_565  A
