geometry optimzed in LAMMPS
_audit_creation_date              2020-11-30 
_audit_creation_method            'lammps2cif' 
_symmetry_space_group_name_H-M    'P1' 
_symmetry_Int_Tables_number       1 
_symmetry_cell_setting            triclinic 
loop_ 
_symmetry_equiv_pos_as_xyz 
  x,y,z 
_cell_length_a                    43.31231872 
_cell_length_b                    43.48615592179318 
_cell_length_c                    51.7803783413802 
_cell_angle_alpha                 89.94270037528469 
_cell_angle_beta                  90.0661467342603 
_cell_angle_gamma                 119.91502756190351 
loop_ 
_atom_site_label 
_atom_site_type_symbol 
_atom_site_fract_x 
_atom_site_fract_y 
_atom_site_fract_z 
_atom_site_charge 
Zn1        Zn  0.33410945  0.16745645  0.87220323     1.49700
Zn2        Zn  0.36167770  0.14638787  0.92364025     1.49400
Zn3        Zn  0.35554905  0.21591499  0.92380397     1.49100
Zn4        Zn  0.28540905  0.14009083  0.92372557     1.49500
O5          O  0.33413471  0.16746333  0.91039984    -1.83100
O6          O  0.35851483  0.14014605  0.85858322    -0.73800
O7          O  0.40488160  0.18137226  0.94324572    -0.73600
O8          O  0.37311031  0.25116813  0.89489894    -0.73100
O9          O  0.37810241  0.12749679  0.89461495    -0.73800
O10         O  0.36134790  0.21928702  0.85882688    -0.73400
O11         O  0.39661157  0.22746902  0.94817542    -0.74000
O12         O  0.27427257  0.16918007  0.94844281    -0.73400
O13         O  0.33300893  0.10699596  0.94921234    -0.74100
O14         O  0.32096059  0.22341002  0.94448244    -0.73500
O15         O  0.27817523  0.09822390  0.94466667    -0.74000
O16         O  0.24962299  0.12276974  0.89481037    -0.73900
O17         O  0.28216752  0.14247722  0.85894105    -0.73700
C18         C  0.37506077  0.12659967  0.87012601     0.78100
C19         C  0.41375339  0.21142139  0.95306368     0.78600
C20         C  0.37426027  0.24917854  0.87043703     0.77600
C21         C  0.29078000  0.20201077  0.95412117     0.77900
C22         C  0.30000341  0.09027922  0.95482054     0.79100
C23         C  0.25196514  0.12574617  0.87033403     0.78100
Zn24       Zn  0.31116724  0.11679804  0.63113092     1.49700
Zn25       Zn  0.33398952  0.16602162  0.58244714     1.49400
Zn26       Zn  0.30832300  0.19000185  0.63159923     1.49100
Zn27       Zn  0.38461343  0.19316519  0.63041018     1.49500
O28         O  0.33448533  0.16650288  0.61954804    -1.83100
O29         O  0.29310473  0.08149604  0.60120272    -0.73800
O30         O  0.31081693  0.19065245  0.56809940    -0.73600
O31         O  0.26563440  0.15552972  0.65287868    -0.73100
O32         O  0.30915260  0.11834535  0.56792612    -0.73800
O33         O  0.26856276  0.10576351  0.65377908    -0.69200
O34         O  0.29005656  0.20687053  0.60140542    -0.74000
O35         O  0.39383365  0.23695431  0.65013449    -0.73400
O36         O  0.38134768  0.18893561  0.56709899    -0.74100
O37         O  0.34092141  0.23370396  0.65281428    -0.73500
O38         O  0.41909458  0.21028401  0.59991240    -0.74000
O39         O  0.39607444  0.16170431  0.65243858    -0.73900
O40         O  0.34675024  0.10860367  0.65059208    -0.73700
C41         C  0.29468518  0.08725869  0.57699319     0.78100
C42         C  0.29415034  0.20514839  0.57718127     0.78600
C43         C  0.25334428  0.12339343  0.65995300     0.77600
C44         C  0.37426361  0.24950447  0.65752166     0.77900
C45         C  0.41274288  0.20590146  0.57577394     0.79100
C46         C  0.37890555  0.12864601  0.65770260     0.78100
C47         C  0.99878175  0.99881052  0.78796102     0.46400
H48         H  0.99749177  0.99816861  0.80936303    -0.02600
C49         C  0.00107653  0.99982623  0.73761520     0.46500
H50         H  0.00208780  0.00034661  0.71614812    -0.02600
C51         C  0.48157625  0.01933013  0.77565440    -0.16300
C52         C  0.03717293  0.01669730  0.77688016    -0.16000
C53         C  0.47930597  0.46154680  0.77561699    -0.16400
C54         C  0.48362845  0.02002808  0.74910429    -0.16400
C55         C  0.03779296  0.01673632  0.75030506    -0.15900
C56         C  0.48008232  0.46260209  0.74903193    -0.16300
Zn57       Zn  0.11778184  0.30923074  0.39694544     1.49700
Zn58       Zn  0.16775360  0.33349161  0.44563552     1.49400
Zn59       Zn  0.19145944  0.30769212  0.39692109     1.49100
Zn60       Zn  0.19310784  0.38310296  0.39712645     1.49500
O61         O  0.16753637  0.33343478  0.40857749    -1.83100
O62         O  0.08289721  0.29527060  0.42683542    -0.73800
O63         O  0.18689789  0.30504301  0.46028987    -0.73600
O64         O  0.15881354  0.26688363  0.37405333    -0.73100
O65         O  0.12009684  0.31449270  0.46010832    -0.73800
O66         O  0.10638968  0.26455354  0.37758695    -0.73400
O67         O  0.20620627  0.28731082  0.42699037    -0.74000
O68         O  0.23695971  0.39235920  0.37703762    -0.73400
O69         O  0.19583250  0.38100407  0.46030168    -0.74100
O70         O  0.23550627  0.34037406  0.37687792    -0.73500
O71         O  0.21044967  0.41801358  0.42718296    -0.74000
O72         O  0.16059778  0.39331435  0.37512287    -0.73900
O73         O  0.10947208  0.34183439  0.37377125    -0.73700
C74         C  0.08887312  0.29985147  0.45099851     0.78100
C75         C  0.20175233  0.28871210  0.45118919     0.78600
C76         C  0.12558604  0.25206965  0.36930847     0.77600
C77         C  0.25032916  0.37309099  0.37084601     0.77900
C78         C  0.21013035  0.41214674  0.45130482     0.79100
C79         C  0.12840742  0.37446838  0.36763141     0.78100
Zn80       Zn  0.11916033  0.31121090  0.13423831     1.49700
Zn81       Zn  0.19532561  0.38348760  0.13394006     1.49400
Zn82       Zn  0.19158293  0.30750554  0.13419760     1.49100
Zn83       Zn  0.16889312  0.33434069  0.08491273     1.49500
O84         O  0.16865671  0.33408309  0.12227336    -1.83100
O85         O  0.11079675  0.34624942  0.15427090    -0.73800
O86         O  0.23811272  0.39155388  0.15421286    -0.73600
O87         O  0.15641854  0.26334829  0.15296400    -0.73100
O88         O  0.16413954  0.39510683  0.15656457    -0.73800
O89         O  0.10746492  0.26770192  0.15639415    -0.73400
O90         O  0.23308338  0.33815732  0.15790297    -0.74000
O91         O  0.20038614  0.31730343  0.07080099    -0.73400
O92         O  0.21299003  0.41835371  0.10390744    -0.74100
O93         O  0.21069634  0.29171130  0.10429794    -0.73500
O94         O  0.18622681  0.38280016  0.07054472    -0.74000
O95         O  0.12040736  0.30334995  0.07045093    -0.73900
O96         O  0.08469262  0.29442556  0.10386543    -0.73700
C97         C  0.13096894  0.37802336  0.16186930     0.78100
C98         C  0.24911630  0.37130952  0.16281408     0.78600
C99         C  0.12456906  0.25134763  0.16075674     0.77600
C100        C  0.21333414  0.29927684  0.08036144     0.77900
C101        C  0.20514683  0.41361396  0.07999948     0.79100
C102        C  0.08952488  0.29167639  0.07990236     0.78100
C103        C  0.00143762  0.00236686  0.29150702     0.46400
H104        H  0.00153450  0.00329677  0.31295944    -0.02600
C105        C  0.00122405  0.99981519  0.24110023     0.46500
H106        H  0.00096341  0.99879335  0.21965289    -0.02600
C107        C  0.02362961  0.48577008  0.27899732    -0.16300
C108        C  0.46482050  0.47968270  0.28042057    -0.16000
C109        C  0.01810741  0.03884787  0.27849545    -0.16400
C110        C  0.02220355  0.48424296  0.25257850    -0.16400
C111        C  0.46320121  0.47832623  0.25399978    -0.15900
C112        C  0.01798291  0.03760512  0.25202864    -0.16300
C113        C  0.07181263  0.17532128  0.19807527     0.30700
C114        C  0.04536040  0.15382306  0.21589410    -0.35600
C115        C  0.04222982  0.12070508  0.22112861     0.16700
C116        C  0.06327128  0.10920313  0.20938481     0.22500
C117        C  0.08982716  0.13076276  0.19167179    -0.33700
C118        C  0.09338042  0.16413047  0.18678861     0.16600
O119        O  0.07967848  0.20745457  0.19051352    -0.25700
C120        C  0.10701085  0.21714262  0.17448775     0.06400
C121        C  0.11674195  0.19129411  0.17154477    -0.30600
O122        O  0.05661358  0.07782329  0.21783928    -0.22400
C123        C  0.03129644  0.06936469  0.23544028    -0.02400
C124        C  0.02116487  0.09492993  0.23819668    -0.16900
H125        H  0.02879919  0.16255112  0.22535986     0.21100
H126        H  0.10703390  0.12242026  0.18274261     0.19500
H127        H  0.13769402  0.19224846  0.15959183     0.19400
H128        H  0.00193409  0.09496408  0.25151466     0.15300
C129        C  0.33168183  0.42535875  0.19189236     0.30700
C130        C  0.36451639  0.45641037  0.19540499    -0.35600
C131        C  0.38749749  0.45429215  0.21342480     0.16700
C132        C  0.37843311  0.42400078  0.22754556     0.22500
C133        C  0.34562706  0.39285574  0.22394183    -0.33700
C134        C  0.32298300  0.39469398  0.20540194     0.16600
O135        O  0.30661860  0.42120431  0.17553519    -0.25700
C136        C  0.28178388  0.38732108  0.17827443     0.06400
C137        C  0.29049037  0.36940586  0.19652453    -0.30600
O138        O  0.40382814  0.42818508  0.24362864    -0.22400
C139        C  0.42958419  0.46135879  0.23940144    -0.02400
C140        C  0.42104988  0.47884909  0.22076524    -0.16900
H141        H  0.37183770  0.48037389  0.18455614     0.21100
H142        H  0.33849267  0.36877719  0.23457487     0.19500
H143        H  0.27512595  0.34188715  0.20235921     0.19400
H144        H  0.43700454  0.50592983  0.21408145     0.15300
C145        C  0.07747975  0.40941124  0.18831562     0.30700
C146        C  0.04683001  0.41243397  0.19077193    -0.35600
C147        C  0.04822279  0.43627518  0.20957027     0.16700
C148        C  0.07748365  0.45524222  0.22528404     0.22500
C149        C  0.10837981  0.45265574  0.22255824    -0.33700
C150        C  0.10726689  0.42936464  0.20334811     0.16600
O151        O  0.08178940  0.38850387  0.17210459    -0.25700
C152        C  0.11496524  0.39554017  0.17645776     0.06400
C153        C  0.13225664  0.42096001  0.19556970    -0.30600
O154        O  0.07241636  0.47482796  0.24229333    -0.22400
C155        C  0.03973904  0.46878934  0.23709463    -0.02400
C156        C  0.02347493  0.44521680  0.21682560    -0.16900
H157        H  0.02350340  0.39721290  0.17886661     0.21100
H158        H  0.13160289  0.46768966  0.23459918     0.19500
H159        H  0.15905428  0.43127267  0.20287562     0.19400
H160        H  0.99688552  0.43525970  0.20919901     0.15300
C161        C  0.33310133  0.42782103  0.34194030     0.30700
C162        C  0.36338995  0.45994528  0.33514693    -0.35600
C163        C  0.38918354  0.45710572  0.32065683     0.16700
C164        C  0.38520563  0.42487087  0.31310220     0.22500
C165        C  0.35513526  0.39276392  0.32014658    -0.33700
C166        C  0.32955144  0.39560723  0.33486338     0.16600
O167        O  0.30553636  0.42423428  0.35520745    -0.25700
C168        C  0.28422643  0.38928311  0.35680059     0.06400
C169        C  0.29785333  0.37012819  0.34459574    -0.30600
O170        O  0.41168792  0.42843243  0.29851951    -0.22400
C171        C  0.43306771  0.46334416  0.29701874    -0.02400
C172        C  0.42062067  0.48257403  0.31047498    -0.16900
H173        H  0.36648512  0.48535829  0.34059315     0.21100
H174        H  0.35175467  0.36736408  0.31432418     0.19500
H175        H  0.28602017  0.34162527  0.34303947     0.19400
H176        H  0.43255018  0.01057309  0.31252524     0.15300
C177        C  0.07123005  0.12363904  0.30447498     0.30700
C178        C  0.10138903  0.15741423  0.30662799    -0.35600
C179        C  0.10047905  0.17885960  0.32642034     0.16700
C180        C  0.07154103  0.16813101  0.34258461     0.22500
C181        C  0.04157483  0.13413252  0.34065895    -0.33700
C182        C  0.04281291  0.11239739  0.32121389     0.16600
O183        O  0.06635764  0.09934891  0.28730304    -0.25700
C184        C  0.03464437  0.07207955  0.29335037     0.06400
C185        C  0.01884155  0.07847216  0.31440578    -0.30600
O186        O  0.07621304  0.19273362  0.35946595    -0.22400
C187        C  0.10876172  0.21924399  0.35428446    -0.02400
C188        C  0.12525398  0.21208383  0.33404938    -0.16900
H189        H  0.12402614  0.16626239  0.29385744     0.21100
H190        H  0.01899824  0.12520485  0.35349745     0.19500
H191        H  0.49673621  0.09227483  0.28436831     0.19400
H192        H  0.15153784  0.22898804  0.32609689     0.15300
C193        C  0.04829950  0.42968447  0.30970782     0.30700
C194        C  0.04536756  0.39712162  0.31651907    -0.35600
C195        C  0.07402932  0.39905506  0.33045803     0.16700
C196        C  0.10367503  0.43083549  0.33706423     0.22500
C197        C  0.10646272  0.46343647  0.33043788    -0.33700
C198        C  0.07762462  0.46151918  0.31671473     0.16600
O199        O  0.02511642  0.43403478  0.29603909    -0.25700
C200        C  0.03957285  0.46905227  0.29459130     0.06400
C201        C  0.07213042  0.48760783  0.30713918    -0.30600
O202        O  0.12717798  0.42638928  0.35030768    -0.22400
C203        C  0.11229864  0.39132255  0.35233530    -0.02400
C204        C  0.07919071  0.37295768  0.34035835    -0.16900
H205        H  0.02237994  0.37204570  0.31127010     0.21100
H206        H  0.12946290  0.48851561  0.33565820     0.19500
H207        H  0.08964842  0.51603732  0.30818173     0.19400
H208        H  0.06129681  0.34457703  0.33951145     0.15300
C209        C  0.26781324  0.03414171  0.52209507     0.30700
C210        C  0.26329874  0.02755341  0.49547538    -0.35600
C211        C  0.24840539  0.49232299  0.48838104     0.16700
C212        C  0.23984230  0.46546230  0.50604944     0.22500
C213        C  0.24499075  0.47212234  0.53263890    -0.33700
C214        C  0.25790655  0.00713308  0.53985375     0.16600
O215        O  0.28150468  0.06537884  0.53308986    -0.25700
C216        C  0.28033744  0.05841309  0.55818945     0.06400
C217        C  0.26588388  0.02256329  0.56367874    -0.30600
O218        O  0.22600098  0.43420408  0.49505212    -0.22400
C219        C  0.22571885  0.44103194  0.47004812    -0.02400
C220        C  0.23943875  0.47679972  0.46462206    -0.16900
H221        H  0.27092249  0.04865891  0.48151441     0.21100
H222        H  0.23817465  0.45111522  0.54655243     0.19500
H223        H  0.26221123  0.00990623  0.58231412     0.19400
H224        H  0.24162381  0.48929296  0.44610436     0.15300
C225        C  0.03539138  0.27635012  0.50563250     0.30700
C226        C  0.02875088  0.27287010  0.53224753    -0.35600
C227        C  0.49234637  0.25084658  0.53801886     0.16700
C228        C  0.46508246  0.23373359  0.52037504     0.22500
C229        C  0.47142129  0.23645968  0.49368914    -0.33700
C230        C  0.00823785  0.26054605  0.48774213     0.16600
O231        O  0.06690073  0.29290234  0.49477957    -0.25700
C232        C  0.05993924  0.28770702  0.46965588     0.06400
C233        C  0.02384959  0.26790926  0.46399396    -0.30600
O234        O  0.43392567  0.21545236  0.53157069    -0.22400
C235        C  0.44128129  0.22083011  0.55666009    -0.02400
C236        C  0.47724667  0.24262482  0.56193306    -0.16900
H237        H  0.04999468  0.28492794  0.54632788     0.21100
H238        H  0.45016352  0.22285829  0.47979834     0.19500
H239        H  0.01119526  0.25913963  0.44532381     0.19400
H240        H  0.49018097  0.25143109  0.58051108     0.15300
C241        C  0.22559210  0.25908334  0.50599205     0.30700
C242        C  0.22848165  0.25537070  0.53263631    -0.35600
C243        C  0.24967638  0.24094846  0.53997413     0.16700
C244        C  0.26663364  0.23081642  0.52220495     0.22500
C245        C  0.26365637  0.23441685  0.49555872    -0.33700
C246        C  0.24250264  0.24889241  0.48822244     0.16600
O247        O  0.20840817  0.27333207  0.49501533    -0.25700
C248        C  0.21427874  0.27225531  0.46992159     0.06400
C249        C  0.23518259  0.25712738  0.46442029    -0.30600
O250        O  0.28476341  0.21763480  0.53322398    -0.22400
C251        C  0.27941315  0.21930771  0.55834014    -0.02400
C252        C  0.25787961  0.23371787  0.56382009    -0.16900
H253        H  0.21541790  0.26350049  0.54662757     0.21100
H254        H  0.27707447  0.22668257  0.48158171     0.19500
H255        H  0.24463846  0.25394992  0.44582679     0.19400
H256        H  0.24909946  0.23762585  0.58246612     0.15300
C257        C  0.46027940  0.07689031  0.71776652     0.30700
C258        C  0.45953321  0.10838327  0.71361900    -0.35600
C259        C  0.43383021  0.10620154  0.69609472     0.16700
C260        C  0.41016600  0.07505535  0.68379121     0.22500
C261        C  0.41140478  0.04374820  0.68751739    -0.33700
C262        C  0.43742832  0.04605117  0.70475734     0.16600
O263        O  0.48043502  0.07226284  0.73460855    -0.25700
C264        C  0.47062386  0.03817031  0.73203914     0.06400
C265        C  0.44436673  0.02062544  0.71354234    -0.30600
O266        O  0.38739097  0.07870250  0.66904704    -0.22400
C267        C  0.39690747  0.11272401  0.67167655    -0.02400
C268        C  0.42577759  0.13122251  0.68812715    -0.16900
H269        H  0.47724247  0.13267611  0.72374117     0.21100
H270        H  0.39296583  0.01917956  0.67800253     0.19500
H271        H  0.43089495  0.99274202  0.70856270     0.19400
H272        H  0.43857849  0.15889299  0.69363566     0.15300
C273        C  0.11781150  0.04069113  0.71779638     0.30700
C274        C  0.14683299  0.03733215  0.70938250    -0.35600
C275        C  0.17377371  0.06663220  0.69611145     0.16700
C276        C  0.17232606  0.09717626  0.69158851     0.22500
C277        C  0.14323208  0.10041793  0.69982625    -0.33700
C278        C  0.11621238  0.07108394  0.71288579     0.16600
O279        O  0.09013031  0.01706777  0.73116693    -0.25700
C280        C  0.07050855  0.03249771  0.73454906     0.06400
C281        C  0.08528450  0.06599191  0.72354201    -0.30600
O282        O  0.20032297  0.12129067  0.67881765    -0.22400
C283        C  0.22001890  0.10604821  0.67497717    -0.02400
C284        C  0.20478372  0.07196646  0.68529745    -0.16900
H285        H  0.14836974  0.01361209  0.71301654     0.21100
H286        H  0.14177811  0.12420763  0.69630895     0.19500
H287        H  0.07519666  0.08429142  0.72410413     0.19400
H288        H  0.21489943  0.05369305  0.68465040     0.15300
C289        C  0.45507550  0.39089731  0.70702459     0.30700
C290        C  0.46085327  0.36819596  0.69110028    -0.35600
C291        C  0.43059450  0.33586987  0.68472734     0.16700
C292        C  0.39677958  0.32671477  0.69297796     0.22500
C293        C  0.39098467  0.34941874  0.70897710    -0.33700
C294        C  0.42137718  0.38152608  0.71574503     0.16600
O295        O  0.47990707  0.42134681  0.71664964    -0.25700
C296        C  0.46197226  0.43139545  0.73198424     0.06400
C297        C  0.42544244  0.40784660  0.73208400    -0.30600
O298        O  0.37235682  0.29510809  0.68463726    -0.22400
C299        C  0.39089783  0.28371695  0.67119907    -0.02400
C300        C  0.42724517  0.30796932  0.67065205    -0.16900
H301        H  0.48725455  0.37488764  0.68466740     0.21100
H302        H  0.36474293  0.34221659  0.71610615     0.19500
H303        H  0.40520384  0.40925210  0.74342667     0.19400
H304        H  0.44808396  0.30552541  0.66100579     0.15300
C305        C  0.47229766  0.25071320  0.00494259     0.30700
C306        C  0.48355941  0.26770905  0.02896459    -0.35600
C307        C  0.01304205  0.26771091  0.04037172     0.16700
C308        C  0.03070354  0.25253150  0.02846469     0.22500
C309        C  0.01905483  0.23478858  0.00481157    -0.33700
C310        C  0.48972752  0.23517705  0.99320800     0.16600
O311        O  0.44421279  0.24600338  0.99170345    -0.25700
C312        C  0.44350795  0.22687673  0.97142409     0.06400
C313        C  0.47111403  0.21929668  0.97139215    -0.30600
O314        O  0.05914257  0.25779049  0.04134853    -0.22400
C315        C  0.05926510  0.27582170  0.06210005    -0.02400
C316        C  0.03109378  0.28256827  0.06267926    -0.16900
H317        H  0.46985119  0.27955928  0.03856185     0.21100
H318        H  0.03244599  0.22240530  0.99549691     0.19500
H319        H  0.47606507  0.20348420  0.95767199     0.19400
H320        H  0.02607446  0.29810903  0.07660223     0.15300
C321        C  0.25015004  0.01893316  0.99626369     0.30700
C322        C  0.21927268  0.48960033  0.00543736    -0.35600
C323        C  0.22300336  0.47510219  0.02857730     0.16700
C324        C  0.25466718  0.48925774  0.04210313     0.22500
C325        C  0.28552273  0.01921669  0.03316356    -0.33700
C326        C  0.28204943  0.03297921  0.00946943     0.16600
O327        O  0.25248704  0.03665152  0.97502617    -0.25700
C328        C  0.28649634  0.06197957  0.97425842     0.06400
C329        C  0.30627141  0.06095366  0.99511757    -0.30600
O330        O  0.25221264  0.47059347  0.06291508    -0.22400
C331        C  0.21867764  0.44402083  0.06242641    -0.02400
C332        C  0.19933810  0.44544357  0.04150281    -0.16900
H333        H  0.19423667  0.47825547  0.99509511     0.21100
H334        H  0.31062284  0.03048760  0.04341116     0.19500
H335        H  0.33399041  0.07907972  0.99957511     0.19400
H336        H  0.17215107  0.42660592  0.03614528     0.15300
C337        C  0.26973605  0.25254478  0.99498219     0.30700
C338        C  0.27078734  0.28340076  0.00395346    -0.35600
C339        C  0.25479207  0.28065379  0.02795004     0.16700
C340        C  0.23935780  0.24988143  0.04243884     0.22500
C341        C  0.23803270  0.21885332  0.03333024    -0.33700
C342        C  0.25337121  0.22138374  0.00900417     0.16600
O343        O  0.28393996  0.24949821  0.97337070    -0.25700
C344        C  0.27590496  0.21575391  0.97323049     0.06400
C345        C  0.25669953  0.19684941  0.99480838    -0.30600
O346        O  0.22462810  0.25299523  0.06383522    -0.22400
C347        C  0.23044954  0.28603625  0.06278008    -0.02400
C348        C  0.24906841  0.30444438  0.04092242    -0.16900
H349        H  0.28288571  0.30774587  0.99285811     0.21100
H350        H  0.22538937  0.19433640  0.04421514     0.19500
H351        H  0.24825948  0.16964209  0.99992673     0.19400
H352        H  0.25582255  0.33092364  0.03489952     0.15300
C353        C  0.40289498  0.08385693  0.82570630     0.30700
C354        C  0.40289706  0.06687934  0.80264099    -0.35600
C355        C  0.42762103  0.05492586  0.80116991     0.16700
C356        C  0.45107539  0.05954504  0.82079058     0.22500
C357        C  0.45067122  0.07599416  0.84404616    -0.33700
C358        C  0.42570546  0.08765926  0.84565248     0.16600
O359        O  0.38222426  0.09737229  0.83124414    -0.25700
C360        C  0.39165540  0.10962647  0.85522257     0.06400
C361        C  0.41846704  0.10414037  0.86511046    -0.30600
O362        O  0.47270382  0.04728846  0.81478859    -0.22400
C363        C  0.46308766  0.03470021  0.79087905    -0.02400
C364        C  0.43446776  0.03805350  0.78186795    -0.16900
H365        H  0.38502244  0.06339146  0.78686404     0.21100
H366        H  0.46867599  0.07962105  0.85976063     0.19500
H367        H  0.43097587  0.11149067  0.88392923     0.19400
H368        H  0.42021224  0.02918541  0.76380868     0.15300
C369        C  0.16395150  0.07888716  0.84692412     0.30700
C370        C  0.12662321  0.05742100  0.84854692    -0.35600
C371        C  0.10784206  0.04993903  0.82507257     0.16700
C372        C  0.12479834  0.06270249  0.80177178     0.22500
C373        C  0.16197798  0.08396790  0.80011784    -0.33700
C374        C  0.18070635  0.09148564  0.82349773     0.16600
O375        O  0.18673174  0.08936685  0.86636452    -0.25700
C376        C  0.21850407  0.10889170  0.85525313     0.06400
C377        C  0.21633477  0.11108634  0.82856634    -0.30600
O378        O  0.10241705  0.05278057  0.78226164    -0.22400
C379        C  0.07037657  0.03322149  0.79285803    -0.02400
C380        C  0.07215106  0.03056830  0.81963064    -0.16900
H381        H  0.11320104  0.04738187  0.86681441     0.21100
H382        H  0.17534592  0.09401754  0.78182764     0.19500
H383        H  0.23783298  0.12508291  0.81493211     0.19400
H384        H  0.05054227  0.01642395  0.83313296     0.15300
C385        C  0.41711138  0.31991394  0.82642693     0.30700
C386        C  0.43468595  0.33709104  0.80361159    -0.35600
C387        C  0.44520722  0.37321239  0.80177758     0.16700
C388        C  0.43877778  0.39141226  0.82083802     0.22500
C389        C  0.42177775  0.37439870  0.84392140    -0.33700
C390        C  0.41148302  0.33825070  0.84588539     0.16600
O391        O  0.40446744  0.28604229  0.83208342    -0.25700
C392        C  0.39089370  0.28269594  0.85564709     0.06400
C393        C  0.39473215  0.31438153  0.86520435    -0.30600
O394        O  0.45008440  0.42488355  0.81449936    -0.22400
C395        C  0.46380985  0.42807286  0.79096214    -0.02400
C396        C  0.46218551  0.39683258  0.78252916    -0.16900
H397        H  0.43959304  0.32321440  0.78824477     0.21100
H398        H  0.41671909  0.38826738  0.85920789     0.19500
H399        H  0.38606577  0.31900907  0.88366754     0.19400
H400        H  0.97239881  0.39189228  0.76500600     0.15300
Zn401      Zn  0.33428491  0.66769380  0.87232036     1.49700
Zn402      Zn  0.36185438  0.64661375  0.92369785     1.49400
Zn403      Zn  0.35587826  0.71626936  0.92395502     1.49100
Zn404      Zn  0.28566141  0.64065123  0.92389072     1.49500
O405        O  0.33437224  0.66781033  0.91051953    -1.83100
O406        O  0.35863856  0.64030407  0.85866426    -0.73800
O407        O  0.40507675  0.68147492  0.94335633    -0.73600
O408        O  0.37338099  0.75147059  0.89501452    -0.73100
O409        O  0.37817371  0.62758342  0.89468141    -0.73800
O410        O  0.36154612  0.71953811  0.85895070    -0.73400
O411        O  0.39698295  0.72769297  0.94820968    -0.74000
O412        O  0.27474186  0.66977122  0.94874366    -0.73400
O413        O  0.33310085  0.60723940  0.94920649    -0.74100
O414        O  0.32153831  0.72393346  0.94488992    -0.73500
O415        O  0.27836327  0.59877737  0.94477809    -0.74000
O416        O  0.24978032  0.62332963  0.89502785    -0.73900
O417        O  0.28228388  0.64267547  0.85911609    -0.73700
C418        C  0.37511273  0.62666798  0.87019387     0.78100
C419        C  0.41402244  0.71155851  0.95314483     0.78600
C420        C  0.37449470  0.74944507  0.87055017     0.77600
C421        C  0.29137477  0.70255236  0.95456852     0.77900
C422        C  0.30010947  0.59066538  0.95484874     0.79100
C423        C  0.25208765  0.62610454  0.87053987     0.78100
Zn424      Zn  0.31117313  0.61678807  0.63143455     1.49700
Zn425      Zn  0.33371748  0.66618994  0.58293019     1.49400
Zn426      Zn  0.30835499  0.68995167  0.63233444     1.49100
Zn427      Zn  0.38454503  0.69315660  0.63078873     1.49500
O428        O  0.33442069  0.66651837  0.62001230    -1.83100
O429        O  0.29345386  0.58168479  0.60143403    -0.73800
O430        O  0.31076758  0.69115872  0.56890383    -0.73600
O431        O  0.26558381  0.65530143  0.65338691    -0.73100
O432        O  0.30870378  0.61858885  0.56823609    -0.73800
O433        O  0.26838134  0.60545818  0.65392762    -0.69200
O434        O  0.29031669  0.70733628  0.60241638    -0.74000
O435        O  0.39388662  0.73696079  0.65051033    -0.73400
O436        O  0.38101711  0.68915156  0.56749472    -0.74100
O437        O  0.34091053  0.73346070  0.65366473    -0.73500
O438        O  0.41888977  0.71025574  0.60025069    -0.74000
O439        O  0.39602909  0.66171023  0.65275126    -0.73900
O440        O  0.34668653  0.60861908  0.65092472    -0.73700
C441        C  0.29465952  0.58749350  0.57725170     0.78100
C442        C  0.29436936  0.70582073  0.57817693     0.78600
C443        C  0.25318342  0.62306245  0.66021838     0.77600
C444        C  0.37431342  0.74939568  0.65811767     0.77900
C445        C  0.41244357  0.70603034  0.57612107     0.79100
C446        C  0.37884611  0.62865618  0.65801079     0.78100
C447        C  0.99876800  0.49892116  0.78827703     0.46400
H448        H  0.99747722  0.49829075  0.80967885    -0.02600
C449        C  0.00105260  0.49991917  0.73793052     0.46500
H450        H  0.00206264  0.50042745  0.71646301    -0.02600
C451        C  0.48130911  0.51909258  0.77557707    -0.16300
C452        C  0.03715744  0.51673539  0.77719538    -0.16000
C453        C  0.47959211  0.96179630  0.77570029    -0.16400
C454        C  0.48342123  0.51980312  0.74902734    -0.16400
C455        C  0.03775854  0.51671867  0.75062100    -0.15900
C456        C  0.48036008  0.96284434  0.74911597    -0.16300
Zn457      Zn  0.11779977  0.80832978  0.39595251     1.49700
Zn458      Zn  0.16645728  0.83300216  0.44556105     1.49400
Zn459      Zn  0.19178849  0.80724073  0.39795784     1.49100
Zn460      Zn  0.19285211  0.88249193  0.39692844     1.49500
O461        O  0.16723507  0.83281162  0.40849496    -1.83100
O462        O  0.08185049  0.79217307  0.42549029    -0.73800
O463        O  0.18625397  0.80562411  0.46128869    -0.73600
O464        O  0.15879356  0.76398647  0.37730556    -0.73100
O465        O  0.11836379  0.81313597  0.45909742    -0.73800
O466        O  0.10800872  0.76516311  0.37511520    -0.73400
O467        O  0.20815036  0.78967703  0.42857863    -0.74000
O468        O  0.23636343  0.89132886  0.37660420    -0.73400
O469        O  0.19347338  0.88060697  0.46016278    -0.74100
O470        O  0.23499568  0.83935099  0.37661239    -0.73500
O471        O  0.21065450  0.91758990  0.42690458    -0.74000
O472        O  0.16016581  0.89299866  0.37525296    -0.73900
O473        O  0.10914855  0.84145859  0.37385027    -0.73700
C474        C  0.08730375  0.79726999  0.44968935     0.78100
C475        C  0.20273645  0.79067152  0.45264143     0.78600
C476        C  0.12660102  0.75070761  0.36987705     0.77600
C477        C  0.24964422  0.87200573  0.37033097     0.77900
C478        C  0.20896044  0.91173889  0.45110282     0.79100
C479        C  0.12785996  0.87419043  0.36798439     0.78100
Zn480      Zn  0.11857743  0.81098223  0.13432073     1.49700
Zn481      Zn  0.19470620  0.88354586  0.13458781     1.49400
Zn482      Zn  0.19122786  0.80761624  0.13488997     1.49100
Zn483      Zn  0.16904412  0.83442575  0.08538639     1.49500
O484        O  0.16830669  0.83411931  0.12275188    -1.83100
O485        O  0.11006962  0.84559213  0.15477450    -0.73800
O486        O  0.23782125  0.89191642  0.15461675    -0.73600
O487        O  0.15667626  0.76476584  0.15509347    -0.73100
O488        O  0.16334318  0.89446091  0.15767077    -0.73800
O489        O  0.10656778  0.76724139  0.15632809    -0.73400
O490        O  0.23335238  0.83872456  0.15776634    -0.74000
O491        O  0.20028820  0.81692860  0.07158292    -0.73400
O492        O  0.21210978  0.91864846  0.10459534    -0.74100
O493        O  0.20937282  0.79044512  0.10507988    -0.73500
O494        O  0.18701537  0.88296861  0.07101144    -0.74000
O495        O  0.12065602  0.80393573  0.07056000    -0.73900
O496        O  0.08454137  0.79490822  0.10373013    -0.73700
C497        C  0.13013939  0.87712655  0.16287005     0.78100
C498        C  0.24920913  0.87180731  0.16282750     0.78600
C499        C  0.12442310  0.75208734  0.16214152     0.77600
C500        C  0.21252799  0.79829680  0.08117020     0.77900
C501        C  0.20513936  0.91383828  0.08055302     0.79100
C502        C  0.08967492  0.79242043  0.07978530     0.78100
C503        C  0.00266285  0.50190247  0.29107740     0.46400
H504        H  0.00379259  0.50297718  0.31252600    -0.02600
C505        C  0.99990530  0.49930423  0.24068587     0.46500
H506        H  0.99878806  0.49831630  0.21924155    -0.02600
C507        C  0.02196225  0.98507699  0.28039821    -0.16300
C508        C  0.46465775  0.97963028  0.28035345    -0.16000
C509        C  0.01736742  0.53821081  0.27811454    -0.16400
C510        C  0.02177870  0.98352527  0.25396434    -0.16400
C511        C  0.46325050  0.97838398  0.25392458    -0.15900
C512        C  0.01585192  0.53694551  0.25169646    -0.16300
C513        C  0.06925702  0.67369564  0.19653579     0.30700
C514        C  0.03827177  0.64809201  0.20911982    -0.35600
C515        C  0.03873672  0.61775418  0.21793733     0.16700
C516        C  0.06768452  0.61294988  0.21460529     0.22500
C517        C  0.09860918  0.63852012  0.20211346    -0.33700
C518        C  0.09817861  0.66882930  0.19339895     0.16600
O519        O  0.07457472  0.70385924  0.18636727    -0.25700
C520        C  0.10742004  0.71850839  0.17674653     0.06400
C521        C  0.12335678  0.69790631  0.18068471    -0.30600
O522        O  0.06292789  0.58327234  0.22511870    -0.22400
C523        C  0.03051067  0.56884158  0.23528512    -0.02400
C524        C  0.01408501  0.58896594  0.23136875    -0.16900
H525        H  0.01547511  0.65162705  0.21192864     0.21100
H526        H  0.12154818  0.63515097  0.19955445     0.19500
H527        H  0.14945836  0.70325165  0.17453511     0.19400
H528        H  0.98827431  0.58366304  0.23818686     0.15300
C529        C  0.33179120  0.92581467  0.19188713     0.30700
C530        C  0.36437290  0.95702618  0.19576572    -0.35600
C531        C  0.38759373  0.95467117  0.21343371     0.16700
C532        C  0.37898996  0.92397430  0.22686826     0.22500
C533        C  0.34647111  0.89267994  0.22287462    -0.33700
C534        C  0.32358536  0.89479744  0.20471295     0.16600
O535        O  0.30649282  0.92186358  0.17583449    -0.25700
C536        C  0.28202231  0.88777796  0.17809851     0.06400
C537        C  0.29119783  0.86952753  0.19571528    -0.30600
O538        O  0.40445540  0.92799405  0.24280594    -0.22400
C539        C  0.42979133  0.96149158  0.23918477    -0.02400
C540        C  0.42093917  0.97935729  0.22107703    -0.16900
H541        H  0.37130358  0.98130832  0.18548305     0.21100
H542        H  0.33968600  0.86832187  0.23299171     0.19500
H543        H  0.27617426  0.84180352  0.20109191     0.19400
H544        H  0.43652895  0.00674311  0.21496013     0.15300
C545        C  0.07655762  0.90796039  0.18994694     0.30700
C546        C  0.04635999  0.91181262  0.19201541    -0.35600
C547        C  0.04740035  0.93472217  0.21145312     0.16700
C548        C  0.07583942  0.95199208  0.22814902     0.22500
C549        C  0.10627086  0.94848964  0.22588614    -0.33700
C550        C  0.10559112  0.92622035  0.20600237     0.16600
O551        O  0.08124263  0.88802981  0.17303220    -0.25700
C552        C  0.11394388  0.89403813  0.17795079     0.06400
C553        C  0.13052654  0.91775686  0.19816872    -0.30600
O554        O  0.07072866  0.97142116  0.24529090    -0.22400
C555        C  0.03887342  0.96697423  0.23919794    -0.02400
C556        C  0.02319105  0.94458338  0.21823081    -0.16900
H557        H  0.02372587  0.89808128  0.17923023     0.21100
H558        H  0.12895279  0.96233825  0.23861373     0.19500
H559        H  0.15686084  0.92702325  0.20606856     0.19400
H560        H  0.99739508  0.93622330  0.20965506     0.15300
C561        C  0.33257125  0.92694977  0.34165466     0.30700
C562        C  0.36316319  0.95913302  0.33539460    -0.35600
C563        C  0.38889887  0.95647949  0.32067947     0.16700
C564        C  0.38457821  0.92437450  0.31242395     0.22500
C565        C  0.35422620  0.89219864  0.31896756    -0.33700
C566        C  0.32869535  0.89483914  0.33391124     0.16600
O567        O  0.30504409  0.92321035  0.35505522    -0.25700
C568        C  0.28341848  0.88825569  0.35608217     0.06400
C569        C  0.29681237  0.86924643  0.34336026    -0.30600
O570        O  0.41103469  0.92814078  0.29771331    -0.22400
C571        C  0.43275974  0.96304138  0.29683257    -0.02400
C572        C  0.42056189  0.98206564  0.31084545    -0.16900
H573        H  0.36652360  0.98446027  0.34139675     0.21100
H574        H  0.35060583  0.86690170  0.31261396     0.19500
H575        H  0.28476085  0.84077365  0.34135006     0.19400
H576        H  0.43231759  0.51110011  0.31159449     0.15300
C577        C  0.07025699  0.61352293  0.31534641     0.30700
C578        C  0.09997209  0.63698195  0.33002309    -0.35600
C579        C  0.10044830  0.66782728  0.33844600     0.16700
C580        C  0.07340947  0.67494566  0.33301568     0.22500
C581        C  0.04381691  0.65159899  0.31819278    -0.33700
C582        C  0.04346852  0.62090095  0.30960463     0.16600
O583        O  0.06437844  0.58320598  0.30540061    -0.25700
C584        C  0.03364075  0.57130475  0.29299874     0.06400
C585        C  0.01928778  0.59348452  0.29497504    -0.30600
O586        O  0.07902655  0.70503877  0.34323913    -0.22400
C587        C  0.11021911  0.71750536  0.35515002    -0.02400
C588        C  0.12483739  0.69551180  0.35279681    -0.16900
H589        H  0.12122276  0.63158619  0.33452379     0.21100
H590        H  0.02256736  0.65699045  0.31367862     0.19500
H591        H  0.49512798  0.59052070  0.28630914     0.19400
H592        H  0.14953334  0.69916740  0.36082747     0.15300
C593        C  0.04581236  0.92919999  0.31237475     0.30700
C594        C  0.04287043  0.89668575  0.31935885    -0.35600
C595        C  0.07204874  0.89870027  0.33261561     0.16700
C596        C  0.10214546  0.93049510  0.33848902     0.22500
C597        C  0.10493049  0.96304856  0.33172548    -0.33700
C598        C  0.07562444  0.96105955  0.31863650     0.16600
O599        O  0.02245226  0.93346123  0.29884499    -0.25700
C600        C  0.03728157  0.96846719  0.29677398     0.06400
C601        C  0.07027092  0.98707065  0.30873812    -0.30600
O602        O  0.12620302  0.92611518  0.35102433    -0.22400
C603        C  0.11124465  0.89106966  0.35329765    -0.02400
C604        C  0.07752419  0.87267125  0.34221615    -0.16900
H605        H  0.01960304  0.87157944  0.31458001     0.21100
H606        H  0.12836246  0.98814772  0.33624517     0.19500
H607        H  0.08829853  0.01544559  0.30896456     0.19400
H608        H  0.05948141  0.84430152  0.34170927     0.15300
C609        C  0.26765587  0.53439322  0.52235787     0.30700
C610        C  0.26262015  0.52775342  0.49576769    -0.35600
C611        C  0.24812939  0.99199581  0.48814659     0.16700
C612        C  0.23817344  0.96497489  0.50590295     0.22500
C613        C  0.24280103  0.97157887  0.53252033    -0.33700
C614        C  0.25910604  0.50754497  0.54003372     0.16600
O615        O  0.28067736  0.56554334  0.53339461    -0.25700
C616        C  0.28041081  0.55867040  0.55844029     0.06400
C617        C  0.26723041  0.52297822  0.56385107    -0.30600
O618        O  0.22373854  0.93366357  0.49493797    -0.22400
C619        C  0.22447762  0.94060599  0.46986499    -0.02400
C620        C  0.23946265  0.97651001  0.46435860    -0.16900
H621        H  0.26914511  0.54871957  0.48187307     0.21100
H622        H  0.23492437  0.95044651  0.54649296     0.19500
H623        H  0.26455181  0.51044812  0.58242347     0.19400
H624        H  0.24273864  0.98914494  0.44575593     0.15300
C625        C  0.03361626  0.77407931  0.50416516     0.30700
C626        C  0.02712417  0.77178991  0.53077446    -0.35600
C627        C  0.49204147  0.75052685  0.53834096     0.16700
C628        C  0.46466955  0.73417205  0.52068101     0.22500
C629        C  0.47097040  0.73713285  0.49398714    -0.33700
C630        C  0.00650899  0.75673663  0.48643385     0.16600
O631        O  0.06501898  0.79103665  0.49322981    -0.25700
C632        C  0.05811947  0.78458772  0.46819015     0.06400
C633        C  0.02210047  0.76349395  0.46265120    -0.30600
O634        O  0.43347335  0.71621257  0.53187446    -0.22400
C635        C  0.44091973  0.72104449  0.55697337    -0.02400
C636        C  0.47697194  0.74217976  0.56225751    -0.16900
H637        H  0.04837740  0.78510838  0.54471179     0.21100
H638        H  0.44962257  0.72411962  0.48008079     0.19500
H639        H  0.00951530  0.75368744  0.44408099     0.19400
H640        H  0.49000323  0.75037874  0.58085184     0.15300
C641        C  0.22733084  0.76200072  0.50761407     0.30700
C642        C  0.23013734  0.75802828  0.53423758    -0.35600
C643        C  0.25093164  0.74308520  0.54143579     0.16700
C644        C  0.26758042  0.73273264  0.52355630     0.22500
C645        C  0.26470681  0.73660974  0.49696491    -0.33700
C646        C  0.24398800  0.75159393  0.48978052     0.16600
O647        O  0.21018807  0.77634547  0.49668161    -0.25700
C648        C  0.21591543  0.77510951  0.47157863     0.06400
C649        C  0.23664981  0.75983289  0.46603383    -0.30600
O650        O  0.28527383  0.71898675  0.53440910    -0.22400
C651        C  0.27996038  0.72049576  0.55953557    -0.02400
C652        C  0.25888995  0.73537312  0.56520143    -0.16900
H653        H  0.21722170  0.76622710  0.54830388     0.21100
H654        H  0.27781435  0.72861693  0.48290836     0.19500
H655        H  0.24570215  0.75623522  0.44740034     0.19400
H656        H  0.25024567  0.73926976  0.58390512     0.15300
C657        C  0.46038773  0.57681562  0.71764992     0.30700
C658        C  0.45969124  0.60833414  0.71354894    -0.35600
C659        C  0.43389836  0.60616931  0.69613253     0.16700
C660        C  0.41012655  0.57502349  0.68387504     0.22500
C661        C  0.41132818  0.54369574  0.68753874    -0.33700
C662        C  0.43742318  0.54597446  0.70468341     0.16600
O663        O  0.48051715  0.57213544  0.73447372    -0.25700
C664        C  0.47055757  0.53800840  0.73193753     0.06400
C665        C  0.44425895  0.52049147  0.71347055    -0.30600
O666        O  0.38727446  0.57868814  0.66924800    -0.22400
C667        C  0.39684977  0.61271458  0.67191171    -0.02400
C668        C  0.42582872  0.63120642  0.68826402    -0.16900
H669        H  0.47746820  0.63261829  0.72365478     0.21100
H670        H  0.39278481  0.51912295  0.67807563     0.19500
H671        H  0.43065966  0.49258696  0.70854585     0.19400
H672        H  0.43869643  0.65888306  0.69376467     0.15300
C673        C  0.11749630  0.54032761  0.71783959     0.30700
C674        C  0.14628305  0.53674300  0.70916414    -0.35600
C675        C  0.17336558  0.56610943  0.69604083     0.16700
C676        C  0.17225133  0.59690420  0.69189461     0.22500
C677        C  0.14339939  0.60037041  0.70038787    -0.33700
C678        C  0.11625288  0.57098990  0.71330424     0.16600
O679        O  0.08973744  0.51669398  0.73114017    -0.25700
C680        C  0.07044704  0.53241326  0.73485435     0.06400
C681        C  0.08550252  0.56608912  0.72413726    -0.30600
O682        O  0.20034683  0.62106739  0.67925422    -0.22400
C683        C  0.21978157  0.60561760  0.67512244    -0.02400
C684        C  0.20427229  0.57133688  0.68510747    -0.16900
H685        H  0.14755666  0.51282373  0.71251334     0.21100
H686        H  0.14222710  0.62437052  0.69717711     0.19500
H687        H  0.07569795  0.58460650  0.72498597     0.19400
H688        H  0.21417277  0.55290010  0.68420584     0.15300
C689        C  0.45527428  0.89104369  0.70718865     0.30700
C690        C  0.46100586  0.86827410  0.69130562    -0.35600
C691        C  0.43072871  0.83591337  0.68502785     0.16700
C692        C  0.39694119  0.82679216  0.69332574     0.22500
C693        C  0.39118982  0.84957358  0.70926248    -0.33700
C694        C  0.42159885  0.88170892  0.71594127     0.16600
O695        O  0.48013290  0.92151777  0.71676448    -0.25700
C696        C  0.46223149  0.93161528  0.73209340     0.06400
C697        C  0.42570441  0.90807507  0.73224124    -0.30600
O698        O  0.37250051  0.79512437  0.68511091    -0.22400
C699        C  0.39100199  0.78365902  0.67170840    -0.02400
C700        C  0.42733962  0.80792833  0.67104540    -0.16900
H701        H  0.48738874  0.87493046  0.68485158     0.21100
H702        H  0.36497173  0.84239638  0.71642961     0.19500
H703        H  0.40549479  0.90950987  0.74360041     0.19400
H704        H  0.44814454  0.80543597  0.66139029     0.15300
C705        C  0.47247358  0.75093790  0.00504695     0.30700
C706        C  0.48372868  0.76806445  0.02902475    -0.35600
C707        C  0.01356878  0.76908656  0.03994104     0.16700
C708        C  0.03114105  0.75376358  0.02810531     0.22500
C709        C  0.01937600  0.73583176  0.00452988    -0.33700
C710        C  0.48985949  0.73527699  0.99342829     0.16600
O711        O  0.44443909  0.74622609  0.99174522    -0.25700
C712        C  0.44371929  0.72697153  0.97154615     0.06400
C713        C  0.47126114  0.71930052  0.97162724    -0.30600
O714        O  0.05949575  0.75889663  0.04104905    -0.22400
C715        C  0.05964774  0.77699118  0.06176886    -0.02400
C716        C  0.03160012  0.78392871  0.06225945    -0.16900
H717        H  0.47004808  0.78001002  0.03853041     0.21100
H718        H  0.03266155  0.72328648  0.99529448     0.19500
H719        H  0.47619445  0.70339599  0.95798229     0.19400
H720        H  0.02656813  0.79945074  0.07619149     0.15300
C721        C  0.25007996  0.51934403  0.99621535     0.30700
C722        C  0.21942295  0.98906344  0.00545010    -0.35600
C723        C  0.22308647  0.97487742  0.02877029     0.16700
C724        C  0.25460876  0.98941581  0.04249636     0.22500
C725        C  0.28564391  0.51893377  0.03274120    -0.33700
C726        C  0.28209795  0.53299114  0.00922136     0.16600
O727        O  0.25241088  0.53726695  0.97510074    -0.25700
C728        C  0.28651875  0.56231367  0.97421828     0.06400
C729        C  0.30637464  0.56091367  0.99487356    -0.30600
O730        O  0.25210187  0.97099051  0.06347619    -0.22400
C731        C  0.21866583  0.94419978  0.06290197    -0.02400
C732        C  0.19947276  0.94523854  0.04174076    -0.16900
H733        H  0.19448396  0.97741543  0.99496408     0.21100
H734        H  0.31084064  0.52987973  0.04282786     0.19500
H735        H  0.33420291  0.57875111  0.99919929     0.19400
H736        H  0.17241478  0.92615592  0.03626461     0.15300
C737        C  0.27046297  0.75272489  0.99599676     0.30700
C738        C  0.27155516  0.78347960  0.00525203    -0.35600
C739        C  0.25487806  0.78023827  0.02903203     0.16700
C740        C  0.23875142  0.74909076  0.04308115     0.22500
C741        C  0.23741759  0.71816995  0.03369208    -0.33700
C742        C  0.25345677  0.72121025  0.00956860     0.16600
O743        O  0.28504727  0.75004986  0.97444966    -0.25700
C744        C  0.27663074  0.71619952  0.97388621     0.06400
C745        C  0.25681475  0.69686767  0.99514035    -0.30600
O746        O  0.22348677  0.75182425  0.06433789    -0.22400
C747        C  0.22969205  0.78502018  0.06362784    -0.02400
C748        C  0.24906333  0.80387170  0.04213499    -0.16900
H749        H  0.28414410  0.80811105  0.99449891     0.21100
H750        H  0.22423679  0.69336073  0.04420453     0.19500
H751        H  0.24785455  0.66943092  0.99986834     0.19400
H752        H  0.25630788  0.83059667  0.03642598     0.15300
C753        C  0.40283968  0.58387730  0.82568944     0.30700
C754        C  0.40299579  0.56716067  0.80252399    -0.35600
C755        C  0.42749862  0.55491941  0.80108796     0.16700
C756        C  0.45059883  0.55902016  0.82083713     0.22500
C757        C  0.45001391  0.57517889  0.84419448    -0.33700
C758        C  0.42528043  0.58714727  0.84575927     0.16600
O759        O  0.38238076  0.59764983  0.83120124    -0.25700
C760        C  0.39157442  0.60954277  0.85528499     0.06400
C761        C  0.41801798  0.60355017  0.86526584    -0.30600
O762        O  0.47211866  0.54662546  0.81484374    -0.22400
C763        C  0.46279806  0.53446452  0.79080676    -0.02400
C764        C  0.43444791  0.53822523  0.78170655    -0.16900
H765        H  0.38541966  0.56410242  0.78664051     0.21100
H766        H  0.46774613  0.57840638  0.86000697     0.19500
H767        H  0.43029700  0.61054661  0.88417308     0.19400
H768        H  0.42039793  0.52971938  0.76354951     0.15300
C769        C  0.16401873  0.57921448  0.84719295     0.30700
C770        C  0.12668083  0.55782238  0.84884631    -0.35600
C771        C  0.10787667  0.55020587  0.82537192     0.16700
C772        C  0.12482012  0.56277839  0.80204317     0.22500
C773        C  0.16200641  0.58397848  0.80036023    -0.33700
C774        C  0.18075771  0.59162415  0.82373860     0.16600
O775        O  0.18682237  0.58979057  0.86662541    -0.25700
C776        C  0.21859538  0.60919182  0.85548091     0.06400
C777        C  0.21639859  0.61119768  0.82877983    -0.30600
O778        O  0.10242297  0.55273921  0.78253584    -0.22400
C779        C  0.07038098  0.53329857  0.79316141    -0.02400
C780        C  0.07217462  0.53084230  0.81995137    -0.16900
H781        H  0.11326851  0.54792839  0.86713534     0.21100
H782        H  0.17536444  0.59388054  0.78204800     0.19500
H783        H  0.23788890  0.62506211  0.81511781     0.19400
H784        H  0.05056966  0.51683138  0.83347963     0.15300
C785        C  0.41747623  0.82018757  0.82655663     0.30700
C786        C  0.43517225  0.83739403  0.80377930    -0.35600
C787        C  0.44559719  0.87349185  0.80190406     0.16700
C788        C  0.43897577  0.89163952  0.82089691     0.22500
C789        C  0.42185122  0.87459787  0.84394004    -0.33700
C790        C  0.41164682  0.83847758  0.84594266     0.16600
O791        O  0.40487895  0.78632839  0.83223783    -0.25700
C792        C  0.39113139  0.78294872  0.85574415     0.06400
C793        C  0.39481375  0.81459741  0.86524025    -0.30600
O794        O  0.45022471  0.92509193  0.81453614    -0.22400
C795        C  0.46410331  0.92832552  0.79105055    -0.02400
C796        C  0.46262714  0.89713188  0.78266970    -0.16900
H797        H  0.44023175  0.82355405  0.78846797     0.21100
H798        H  0.41663263  0.88842620  0.85916859     0.19500
H799        H  0.38599396  0.81919305  0.88365004     0.19400
H800        H  0.97257531  0.89180259  0.76484532     0.15300
Zn801      Zn  0.83441221  0.16753908  0.87239650     1.49700
Zn802      Zn  0.86185364  0.14631361  0.92373932     1.49400
Zn803      Zn  0.85579808  0.21596492  0.92409649     1.49100
Zn804      Zn  0.78566950  0.14035448  0.92395035     1.49500
O805        O  0.83437357  0.16753887  0.91059608    -1.83100
O806        O  0.85873355  0.14011917  0.85871230    -0.73800
O807        O  0.90506306  0.18122888  0.94330966    -0.73600
O808        O  0.87371341  0.25127330  0.89523653    -0.73100
O809        O  0.87815684  0.12723855  0.89471426    -0.73800
O810        O  0.86181505  0.21944293  0.85911754    -0.73400
O811        O  0.89662404  0.22717980  0.94856536    -0.74000
O812        O  0.77447916  0.16957759  0.94853445    -0.73400
O813        O  0.83326963  0.10710008  0.94944342    -0.74100
O814        O  0.82129620  0.22373042  0.94476092    -0.73500
O815        O  0.77857388  0.09879057  0.94516027    -0.74000
O816        O  0.74988722  0.12272154  0.89501047    -0.73900
O817        O  0.78243694  0.14255094  0.85914428    -0.73700
C818        C  0.87515147  0.12640854  0.87022221     0.78100
C819        C  0.91378984  0.21112747  0.95333580     0.78600
C820        C  0.87488422  0.24932413  0.87077176     0.77600
C821        C  0.79104076  0.20237447  0.95432089     0.77900
C822        C  0.80032775  0.09069319  0.95524241     0.79100
C823        C  0.75223195  0.12570677  0.87053071     0.78100
Zn824      Zn  0.81105442  0.11677485  0.63119287     1.49700
Zn825      Zn  0.83406618  0.16661966  0.58283140     1.49400
Zn826      Zn  0.80827554  0.18994907  0.63225445     1.49100
Zn827      Zn  0.88439559  0.19300149  0.63100032     1.49500
O828        O  0.83440393  0.16657510  0.61993336    -1.83100
O829        O  0.79312840  0.08196492  0.60105792    -0.73800
O830        O  0.81102924  0.19161513  0.56884936    -0.73600
O831        O  0.76555893  0.15526300  0.65328399    -0.73100
O832        O  0.80927790  0.11907793  0.56792444    -0.73800
O833        O  0.76836226  0.10542294  0.65377020    -0.69200
O834        O  0.79019773  0.20736328  0.60237409    -0.74000
O835        O  0.89363992  0.23665055  0.65086207    -0.73400
O836        O  0.88158108  0.18993407  0.56766523    -0.74100
O837        O  0.84074763  0.23340129  0.65364421    -0.73500
O838        O  0.91902763  0.21044715  0.60069978    -0.74000
O839        O  0.89569529  0.16130832  0.65280406    -0.73900
O840        O  0.84643917  0.10821015  0.65054577    -0.73700
C841        C  0.79476811  0.08791617  0.57687828     0.78100
C842        C  0.79444234  0.20608477  0.57813794     0.78600
C843        C  0.75318133  0.12302517  0.66009819     0.77600
C844        C  0.87408994  0.24918878  0.65830469     0.77900
C845        C  0.91289781  0.20666408  0.57652697     0.79100
C846        C  0.87852779  0.12818110  0.65781115     0.78100
C847        C  0.49890198  0.99914950  0.78817538     0.46400
H848        H  0.49759954  0.99852647  0.80957787    -0.02600
C849        C  0.50122000  0.00013268  0.73782876     0.46500
H850        H  0.50225686  0.00063442  0.71636218    -0.02600
C851        C  0.98131403  0.01887038  0.77548464    -0.16300
C852        C  0.53730257  0.01691191  0.77711377    -0.16000
C853        C  0.97949937  0.46156983  0.77580045    -0.16400
C854        C  0.98332471  0.01954711  0.74893353    -0.16400
C855        C  0.53790497  0.01688449  0.75054232    -0.15900
C856        C  0.98023047  0.46263264  0.74921513    -0.16300
Zn857      Zn  0.61821965  0.30902563  0.39557710     1.49700
Zn858      Zn  0.66676787  0.33347785  0.44530188     1.49400
Zn859      Zn  0.69203067  0.30757286  0.39783356     1.49100
Zn860      Zn  0.69337176  0.38297581  0.39677814     1.49500
O861        O  0.66758399  0.33328209  0.40826053    -1.83100
O862        O  0.58216066  0.29315657  0.42507946    -0.73800
O863        O  0.68660728  0.30621736  0.46116035    -0.73600
O864        O  0.65884348  0.26405535  0.37746457    -0.73100
O865        O  0.61868555  0.31358848  0.45871291    -0.73800
O866        O  0.60830775  0.26567537  0.37491083    -0.73400
O867        O  0.70862768  0.29033423  0.42850157    -0.74000
O868        O  0.73699231  0.39173974  0.37674363    -0.73400
O869        O  0.69353682  0.38106182  0.45991231    -0.74100
O870        O  0.73517157  0.33954494  0.37638958    -0.73500
O871        O  0.71073063  0.41809384  0.42669259    -0.74000
O872        O  0.66117581  0.39361398  0.37476605    -0.73900
O873        O  0.61003067  0.34222197  0.37315658    -0.73700
C874        C  0.58763376  0.29802302  0.44929809     0.78100
C875        C  0.70320289  0.29136098  0.45255732     0.78600
C876        C  0.62670657  0.25092895  0.36993777     0.77600
C877        C  0.75005999  0.37229011  0.37032143     0.77900
C878        C  0.70889606  0.41220371  0.45088221     0.79100
C879        C  0.62898451  0.37492221  0.36726063     0.78100
Zn880      Zn  0.61864501  0.31097165  0.13401113     1.49700
Zn881      Zn  0.69486504  0.38348929  0.13418307     1.49400
Zn882      Zn  0.69139213  0.30767920  0.13492628     1.49100
Zn883      Zn  0.66912973  0.33412510  0.08519384     1.49500
O884        O  0.66841193  0.33400742  0.12255415    -1.83100
O885        O  0.61013901  0.34584759  0.15419869    -0.73800
O886        O  0.73778295  0.39205850  0.15455965    -0.73600
O887        O  0.65669934  0.26482807  0.15511863    -0.73100
O888        O  0.66344650  0.39473440  0.15678141    -0.73800
O889        O  0.60651150  0.26719096  0.15603239    -0.73400
O890        O  0.73329689  0.33889475  0.15799136    -0.74000
O891        O  0.70076269  0.31698926  0.07159464    -0.73400
O892        O  0.71238826  0.41830543  0.10409581    -0.74100
O893        O  0.70985440  0.29063330  0.10518560    -0.73500
O894        O  0.68665338  0.38255096  0.07065002    -0.74000
O895        O  0.62083278  0.30316359  0.07032679    -0.73900
O896        O  0.58471149  0.29474198  0.10336133    -0.73700
C897        C  0.63025253  0.37754460  0.16198843     0.78100
C898        C  0.74908912  0.37199223  0.16300427     0.78600
C899        C  0.62436826  0.25208749  0.16200606     0.77600
C900        C  0.71308803  0.29847514  0.08126366     0.77900
C901        C  0.70506353  0.41343716  0.08011133     0.79100
C902        C  0.58984751  0.29186863  0.07947711     0.78100
C903        C  0.50245989  0.00207494  0.29124182     0.46400
H904        H  0.50356531  0.00316855  0.31269046    -0.02600
C905        C  0.49975775  0.99943069  0.24085651     0.46500
H906        H  0.49868015  0.99841811  0.21941170    -0.02600
C907        C  0.52368872  0.48602000  0.27908614    -0.16300
C908        C  0.96484676  0.47965208  0.28020695    -0.16000
C909        C  0.51704952  0.03836557  0.27825483    -0.16400
C910        C  0.52209062  0.48433388  0.25267234    -0.16400
C911        C  0.96339259  0.47840336  0.25378070    -0.15900
C912        C  0.51554438  0.03706745  0.25183302    -0.16300
C913        C  0.56868723  0.17306580  0.19560319     0.30700
C914        C  0.53715164  0.14667017  0.20713579    -0.35600
C915        C  0.53820176  0.11706515  0.21696145     0.16700
C916        C  0.56823865  0.11372712  0.21558855     0.22500
C917        C  0.59967728  0.14004586  0.20409500    -0.33700
C918        C  0.59862248  0.16957572  0.19431679     0.16600
O919        O  0.57367220  0.20279060  0.18483527    -0.25700
C920        C  0.60729255  0.21852018  0.17664961     0.06400
C921        C  0.62406093  0.19904811  0.18212117    -0.30600
O922        O  0.56382917  0.08457836  0.22680473    -0.22400
C923        C  0.53050753  0.06894922  0.23538509    -0.02400
C924        C  0.51316728  0.08780004  0.22978211    -0.16900
H925        H  0.51351743  0.14909560  0.20844298     0.21100
H926        H  0.62342546  0.13778542  0.20303204     0.19500
H927        H  0.65093385  0.20540449  0.17733959     0.19400
H928        H  0.48649491  0.08142926  0.23520009     0.15300
C929        C  0.83144367  0.42613716  0.19235648     0.30700
C930        C  0.86398971  0.45738457  0.19627627    -0.35600
C931        C  0.88740797  0.45493683  0.21370502     0.16700
C932        C  0.87901027  0.42411535  0.22689009     0.22500
C933        C  0.84651940  0.39280204  0.22287221    -0.33700
C934        C  0.82344137  0.39501778  0.20494380     0.16600
O935        O  0.80607556  0.42220472  0.17637758    -0.25700
C936        C  0.78176280  0.38803554  0.17845144     0.06400
C937        C  0.79110407  0.36972049  0.19588821    -0.30600
O938        O  0.90463850  0.42803484  0.24261758    -0.22400
C939        C  0.92988042  0.46159415  0.23910601    -0.02400
C940        C  0.92080056  0.47961001  0.22128689    -0.16900
H941        H  0.87077594  0.48174516  0.18615972     0.21100
H942        H  0.83991526  0.36834552  0.23277294     0.19500
H943        H  0.77628376  0.34190297  0.20103680     0.19400
H944        H  0.93626995  0.50707564  0.21532836     0.15300
C945        C  0.57690003  0.40905506  0.18846280     0.30700
C946        C  0.54647160  0.41249451  0.19073053    -0.35600
C947        C  0.54790521  0.43625581  0.20961329     0.16700
C948        C  0.57698547  0.45475123  0.22557430     0.22500
C949        C  0.60765278  0.45173081  0.22305638    -0.33700
C950        C  0.60651354  0.42853394  0.20376589     0.16600
O951        O  0.58119790  0.38825285  0.17213945    -0.25700
C952        C  0.61419786  0.39489409  0.17670182     0.06400
C953        C  0.63137537  0.41992364  0.19606791    -0.30600
O954        O  0.57198530  0.47434909  0.24260438    -0.22400
C955        C  0.53953400  0.46878763  0.23718906    -0.02400
C956        C  0.52335491  0.44552578  0.21673944    -0.16900
H957        H  0.52329452  0.39766725  0.17860773     0.21100
H958        H  0.63074126  0.46640849  0.23528944     0.19500
H959        H  0.65804903  0.42992338  0.20353617     0.19400
H960        H  0.49692138  0.43594567  0.20892428     0.15300
C961        C  0.83295480  0.42719614  0.34164885     0.30700
C962        C  0.86345655  0.45938219  0.33525832    -0.35600
C963        C  0.88919144  0.45669937  0.32056769     0.16700
C964        C  0.88495466  0.42456106  0.31247630     0.22500
C965        C  0.85470243  0.39239457  0.31915569    -0.33700
C966        C  0.82916530  0.39506640  0.33405310     0.16600
O967        O  0.80540613  0.42346862  0.35500467    -0.25700
C968        C  0.78385901  0.38850877  0.35613621     0.06400
C969        C  0.79731896  0.36947990  0.34353861    -0.30600
O970        O  0.91137690  0.42827440  0.29776114    -0.22400
C971        C  0.93299574  0.46317377  0.29670954    -0.02400
C972        C  0.92076760  0.48226301  0.31060776    -0.16900
H973        H  0.86673633  0.48472494  0.34112821     0.21100
H974        H  0.85114547  0.36707896  0.31291563     0.19500
H975        H  0.78532262  0.34100186  0.34161401     0.19400
H976        H  0.93271615  0.01171157  0.31327475     0.15300
C977        C  0.56919110  0.11291309  0.31640417     0.30700
C978        C  0.59817655  0.13559213  0.33199335    -0.35600
C979        C  0.59948082  0.16713782  0.33959526     0.16700
C980        C  0.57380734  0.17557316  0.33262049     0.22500
C981        C  0.54498473  0.15302399  0.31686471    -0.33700
C982        C  0.54389189  0.12168512  0.30902915     0.16600
O983        O  0.56279524  0.08218480  0.30693776    -0.25700
C984        C  0.53330040  0.07146730  0.29313993     0.06400
C985        C  0.52023643  0.09482377  0.29375093    -0.30600
O986        O  0.57994933  0.20612033  0.34230490    -0.22400
C987        C  0.61015962  0.21758306  0.35538693    -0.02400
C988        C  0.62359258  0.19447132  0.35435502    -0.16900
H989        H  0.61833104  0.12915074  0.33771401     0.21100
H990        H  0.52487485  0.15949661  0.31108100     0.19500
H991        H  0.99319866  0.06098120  0.32303247     0.19400
H992        H  0.64733305  0.19720343  0.36347989     0.15300
C993        C  0.54862624  0.43017677  0.30981429     0.30700
C994        C  0.54577423  0.39765585  0.31659733    -0.35600
C995        C  0.57446504  0.39964812  0.33050675     0.16700
C996        C  0.60407827  0.43144104  0.33713852     0.22500
C997        C  0.60678493  0.46402459  0.33054790    -0.33700
C998        C  0.57790595  0.46204682  0.31682692     0.16600
O999        O  0.52540006  0.43443813  0.29614159    -0.25700
C1000       C  0.53976287  0.46943553  0.29468450     0.06400
C1001       C  0.57232099  0.48807630  0.30723502    -0.30600
O1002       O  0.62766043  0.42699804  0.35028903    -0.22400
C1003       C  0.61283951  0.39192172  0.35220027    -0.02400
C1004       C  0.57971089  0.37356446  0.34027268    -0.16900
H1005       H  0.52283548  0.37255860  0.31131982     0.21100
H1006       H  0.62976460  0.48912369  0.33575979     0.19500
H1007       H  0.58977795  0.51651632  0.30826802     0.19400
H1008       H  0.56187833  0.34517795  0.33933201     0.15300
C1009       C  0.76760309  0.03476792  0.52198580     0.30700
C1010       C  0.76306838  0.02809816  0.49537559    -0.35600
C1011       C  0.74721564  0.49229246  0.48805470     0.16700
C1012       C  0.73772904  0.46526445  0.50573676     0.22500
C1013       C  0.74254159  0.47178315  0.53234789    -0.33700
C1014       C  0.75704596  0.00773271  0.53980742     0.16600
O1015       O  0.78183265  0.06608849  0.53292247    -0.25700
C1016       C  0.78035504  0.05912555  0.55804016     0.06400
C1017       C  0.76519077  0.02322059  0.56359646    -0.30600
O1018       O  0.72361990  0.43402371  0.49471049    -0.22400
C1019       C  0.72411952  0.44101779  0.46967180    -0.02400
C1020       C  0.73859144  0.47688400  0.46424302    -0.16900
H1021       H  0.77124211  0.04921766  0.48135387     0.21100
H1022       H  0.73507375  0.45064490  0.54625619     0.19500
H1023       H  0.76106042  0.01054532  0.58226632     0.19400
H1024       H  0.74160110  0.48953478  0.44567859     0.15300
C1025       C  0.53420916  0.27452690  0.50391459     0.30700
C1026       C  0.52785638  0.27195052  0.53055405    -0.35600
C1027       C  0.99304625  0.25218066  0.53942697     0.16700
C1028       C  0.96589059  0.23630320  0.52155012     0.22500
C1029       C  0.97250458  0.23999788  0.49492287    -0.33700
C1030       C  0.50700394  0.25745525  0.48621662     0.16600
O1031       O  0.56555451  0.29152157  0.49290475    -0.25700
C1032       C  0.55851810  0.28536545  0.46785281     0.06400
C1033       C  0.52246364  0.26443905  0.46237856    -0.30600
O1034       O  0.93455062  0.21799929  0.53246877    -0.22400
C1035       C  0.94165192  0.22212531  0.55762185    -0.02400
C1036       C  0.97763904  0.24313078  0.56321601    -0.16900
H1037       H  0.54918808  0.28507858  0.54445926     0.21100
H1038       H  0.95133213  0.22731703  0.48084710     0.19500
H1039       H  0.50977399  0.25483944  0.44381187     0.19400
H1040       H  0.99040780  0.25081458  0.58192788     0.15300
C1041       C  0.72763120  0.26256355  0.50756382     0.30700
C1042       C  0.73007302  0.25820705  0.53418281    -0.35600
C1043       C  0.75100835  0.24342139  0.54141113     0.16700
C1044       C  0.76813358  0.23358993  0.52356098     0.22500
C1045       C  0.76563647  0.23786602  0.49698154    -0.33700
C1046       C  0.74476388  0.25266508  0.48976878     0.16600
O1047       O  0.71035405  0.27675452  0.49660334    -0.25700
C1048       C  0.71646351  0.27590688  0.47152275     0.06400
C1049       C  0.73759864  0.26106394  0.46602281    -0.30600
O1050       O  0.78585450  0.21987367  0.53441660    -0.22400
C1051       C  0.78009368  0.22087340  0.55952188    -0.02400
C1052       C  0.75868561  0.23538824  0.56517000    -0.16900
H1053       H  0.71675947  0.26597629  0.54822274     0.21100
H1054       H  0.77909831  0.23025764  0.48295059     0.19500
H1055       H  0.74697789  0.25780900  0.44741954     0.19400
H1056       H  0.74964861  0.23884561  0.58385046     0.15300
C1057       C  0.95985407  0.07627238  0.71764096     0.30700
C1058       C  0.95914692  0.10776820  0.71349338    -0.35600
C1059       C  0.93340279  0.10557865  0.69602720     0.16700
C1060       C  0.90966114  0.07442814  0.68376200     0.22500
C1061       C  0.91085086  0.04309508  0.68749303    -0.33700
C1062       C  0.93691983  0.04540363  0.70469104     0.16600
O1063       O  0.98006729  0.07168440  0.73443692    -0.25700
C1064       C  0.97021130  0.03758837  0.73190598     0.06400
C1065       C  0.94386295  0.01998468  0.71347928    -0.30600
O1066       O  0.88687063  0.07811171  0.66906175    -0.22400
C1067       C  0.89646713  0.11215347  0.67170340    -0.02400
C1068       C  0.92538933  0.13062281  0.68810183    -0.16900
H1069       H  0.97691904  0.13207460  0.72357713     0.21100
H1070       H  0.89235254  0.01851514  0.67801756     0.19500
H1071       H  0.93036068  0.99208632  0.70854201     0.19400
H1072       H  0.93825468  0.15829900  0.69360403     0.15300
C1073       C  0.61760152  0.04038598  0.71778951     0.30700
C1074       C  0.64639873  0.03679715  0.70915436    -0.35600
C1075       C  0.67343938  0.06611884  0.69597138     0.16700
C1076       C  0.67226844  0.09686816  0.69173424     0.22500
C1077       C  0.64340031  0.10032893  0.70017365    -0.33700
C1078       C  0.61630146  0.07099813  0.71314975     0.16600
O1079       O  0.58988526  0.01681012  0.73114810    -0.25700
C1080       C  0.57057755  0.03252276  0.73478887     0.06400
C1081       C  0.58556249  0.06612542  0.72396705    -0.30600
O1082       O  0.70033837  0.12100582  0.67907065    -0.22400
C1083       C  0.71981072  0.10558584  0.67501126    -0.02400
C1084       C  0.70435849  0.07134772  0.68506528    -0.16900
H1085       H  0.64771616  0.01291699  0.71258411     0.21100
H1086       H  0.64218871  0.12429439  0.69688849     0.19500
H1087       H  0.57572145  0.08461742  0.72473957     0.19400
H1088       H  0.71430483  0.05294463  0.68422887     0.15300
C1089       C  0.95506377  0.39084452  0.70729658     0.30700
C1090       C  0.96078599  0.36801416  0.69148534    -0.35600
C1091       C  0.93049568  0.33567531  0.68521009     0.16700
C1092       C  0.89669666  0.32663364  0.69342762     0.22500
C1093       C  0.89094981  0.34948264  0.70929272    -0.33700
C1094       C  0.92138112  0.38159443  0.71598519     0.16600
O1095       O  0.97994734  0.42128087  0.71689293    -0.25700
C1096       C  0.96206196  0.43143962  0.73217794     0.06400
C1097       C  0.92551407  0.40798548  0.73227154    -0.30600
O1098       O  0.87224591  0.29496847  0.68521609    -0.22400
C1099       C  0.89076133  0.28343128  0.67190905    -0.02400
C1100       C  0.92711002  0.30764503  0.67129984    -0.16900
H1101       H  0.98717554  0.37460218  0.68509656     0.21100
H1102       H  0.86472424  0.34236440  0.71640906     0.19500
H1103       H  0.90531121  0.40947818  0.74359803     0.19400
H1104       H  0.94792344  0.30509728  0.66171011     0.15300
C1105       C  0.97208195  0.25031302  0.00534246     0.30700
C1106       C  0.98346473  0.26766771  0.02923318    -0.35600
C1107       C  0.51343647  0.26809893  0.03985863     0.16700
C1108       C  0.53150365  0.25359756  0.02761028     0.22500
C1109       C  0.51999098  0.23621745  0.00381044    -0.33700
C1110       C  0.98911096  0.23412760  0.99396468     0.16600
O1111       O  0.94428011  0.24592320  0.99188433    -0.25700
C1112       C  0.94337413  0.22637059  0.97182506     0.06400
C1113       C  0.97055405  0.21818454  0.97215408    -0.30600
O1114       O  0.56004463  0.25895084  0.04041074    -0.22400
C1115       C  0.55982846  0.27636516  0.06143617    -0.02400
C1116       C  0.53133325  0.28260442  0.06227791    -0.16900
H1117       H  0.97010599  0.28009096  0.03853193     0.21100
H1118       H  0.53366184  0.22430384  0.99424110     0.19500
H1119       H  0.97527166  0.20197053  0.95866217     0.19400
H1120       H  0.52591946  0.29751652  0.07651034     0.15300
C1121       C  0.75025942  0.01991720  0.99703153     0.30700
C1122       C  0.71940694  0.48923842  0.00533296    -0.35600
C1123       C  0.72305000  0.47478442  0.02852828     0.16700
C1124       C  0.75460916  0.48909717  0.04219539     0.22500
C1125       C  0.78595500  0.01927307  0.03338279    -0.33700
C1126       C  0.78237223  0.03336297  0.00987996     0.16600
O1127       O  0.75257661  0.03774303  0.97586985    -0.25700
C1128       C  0.78676033  0.06253724  0.97478056     0.06400
C1129       C  0.80669438  0.06107161  0.99536686    -0.30600
O1130       O  0.75208314  0.47049070  0.06306228    -0.22400
C1131       C  0.71861137  0.44379142  0.06246998    -0.02400
C1132       C  0.69938568  0.44507033  0.04141454    -0.16900
H1133       H  0.69444670  0.47778268  0.99488503     0.21100
H1134       H  0.81123172  0.03001866  0.04333490     0.19500
H1135       H  0.83461669  0.07870917  0.99952670     0.19400
H1136       H  0.67226960  0.42613038  0.03596674     0.15300
C1137       C  0.77025732  0.25266723  0.99574620     0.30700
C1138       C  0.77175496  0.28354103  0.00517772    -0.35600
C1139       C  0.75520971  0.28033078  0.02901864     0.16700
C1140       C  0.73879162  0.24908344  0.04293927     0.22500
C1141       C  0.73702012  0.21804597  0.03336188    -0.33700
C1142       C  0.75296236  0.22107345  0.00919919     0.16600
O1143       O  0.78484867  0.24997889  0.97420096    -0.25700
C1144       C  0.77615267  0.21604718  0.97352261     0.06400
C1145       C  0.75611853  0.19667454  0.99469057    -0.30600
O1146       O  0.72368363  0.25186112  0.06426742    -0.22400
C1147       C  0.73029905  0.28520075  0.06375443    -0.02400
C1148       C  0.74977909  0.30409546  0.04230329    -0.16900
H1149       H  0.78460274  0.30825775  0.99453428     0.21100
H1150       H  0.72363607  0.19317584  0.04378755     0.19500
H1151       H  0.74699593  0.16918903  0.99936396     0.19400
H1152       H  0.75725329  0.33091751  0.03670240     0.15300
C1153       C  0.90274383  0.08345944  0.82573865     0.30700
C1154       C  0.90266693  0.06644416  0.80266352    -0.35600
C1155       C  0.92737539  0.05446485  0.80113590     0.16700
C1156       C  0.95088185  0.05908782  0.82071639     0.22500
C1157       C  0.95055246  0.07556727  0.84398248    -0.33700
C1158       C  0.92560713  0.08726184  0.84564395     0.16600
O1159       O  0.88212856  0.09703640  0.83131492    -0.25700
C1160       C  0.89164468  0.10933259  0.85528139     0.06400
C1161       C  0.91845664  0.10380177  0.86511786    -0.30600
O1162       O  0.97249633  0.04682599  0.81466393    -0.22400
C1163       C  0.96282511  0.03422567  0.79075857    -0.02400
C1164       C  0.93418150  0.03758726  0.78180275    -0.16900
H1165       H  0.88475560  0.06296135  0.78691433     0.21100
H1166       H  0.96860842  0.07920730  0.85966301     0.19500
H1167       H  0.93103728  0.11117830  0.88391167     0.19400
H1168       H  0.91989331  0.02873319  0.76375521     0.15300
C1169       C  0.66420125  0.07877054  0.84710579     0.30700
C1170       C  0.62686752  0.05731141  0.84873008    -0.35600
C1171       C  0.60805339  0.04999282  0.82527516     0.16700
C1172       C  0.62498416  0.06289882  0.80198574     0.22500
C1173       C  0.66217296  0.08416744  0.80033040    -0.33700
C1174       C  0.68093429  0.09151821  0.82369304     0.16600
O1175       O  0.68699790  0.08915512  0.86653783    -0.25700
C1176       C  0.71876527  0.10877427  0.85543821     0.06400
C1177       C  0.71657136  0.11110845  0.82876288    -0.30600
O1178       O  0.60257437  0.05306971  0.78248881    -0.22400
C1179       C  0.57053774  0.03342865  0.79308376    -0.02400
C1180       C  0.57235015  0.03064253  0.81984172    -0.16900
H1181       H  0.61346260  0.04715956  0.86698816     0.21100
H1182       H  0.67552521  0.09433811  0.78205138     0.19500
H1183       H  0.73805539  0.12523558  0.81514098     0.19400
H1184       H  0.55075377  0.01639219  0.83333471     0.15300
C1185       C  0.91785360  0.32007847  0.82678316     0.30700
C1186       C  0.93523143  0.33719716  0.80389795    -0.35600
C1187       C  0.94569653  0.37330359  0.80203812     0.16700
C1188       C  0.93942417  0.39154840  0.82115149     0.22500
C1189       C  0.92264770  0.37460188  0.84430979    -0.33700
C1190       C  0.91238470  0.33846307  0.84628935     0.16600
O1191       O  0.90514872  0.28619316  0.83242720    -0.25700
C1192       C  0.89169358  0.28288391  0.85602881     0.06400
C1193       C  0.89568907  0.31461346  0.86562959    -0.30600
O1194       O  0.95061817  0.42498549  0.81477754    -0.22400
C1195       C  0.96410623  0.42811018  0.79116185    -0.02400
C1196       C  0.96243604  0.39685663  0.78270555    -0.16900
H1197       H  0.93998399  0.32327431  0.78848285     0.21100
H1198       H  0.91768522  0.38850070  0.85962626     0.19500
H1199       H  0.88708432  0.31926369  0.88411082     0.19400
H1200       H  0.47230988  0.39191798  0.76488860     0.15300
Zn1201     Zn  0.83422557  0.66761490  0.87227771     1.49700
Zn1202     Zn  0.86185444  0.64662433  0.92370455     1.49400
Zn1203     Zn  0.85562352  0.71612888  0.92392887     1.49100
Zn1204     Zn  0.78553211  0.64033906  0.92378679     1.49500
O1205       O  0.83425745  0.66767457  0.91048020    -1.83100
O1206       O  0.85867436  0.64032374  0.85865237    -0.73800
O1207       O  0.90498453  0.68162139  0.94336507    -0.73600
O1208       O  0.87329706  0.75137898  0.89503134    -0.73100
O1209       O  0.87833918  0.62775098  0.89467499    -0.73800
O1210       O  0.86149262  0.71947535  0.85895802    -0.73400
O1211       O  0.89661682  0.72765040  0.94834290    -0.74000
O1212       O  0.77433381  0.66946735  0.94845370    -0.73400
O1213       O  0.83320722  0.60720511  0.94926500    -0.74100
O1214       O  0.82104062  0.72369390  0.94460960    -0.73500
O1215       O  0.77841844  0.59859344  0.94480608    -0.74000
O1216       O  0.74972633  0.62282732  0.89484956    -0.73900
O1217       O  0.78225967  0.64254094  0.85897811    -0.73700
C1218       C  0.87525765  0.62680928  0.87018655     0.78100
C1219       C  0.91377842  0.71162620  0.95323350     0.78600
C1220       C  0.87445848  0.74937321  0.87057103     0.77600
C1221       C  0.79082665  0.70228014  0.95420039     0.77900
C1222       C  0.80021220  0.59056422  0.95490954     0.79100
C1223       C  0.75205450  0.62575609  0.87036756     0.78100
Zn1224     Zn  0.81080993  0.61633495  0.63124709     1.49700
Zn1225     Zn  0.83330824  0.66584145  0.58275675     1.49400
Zn1226     Zn  0.80806169  0.68959390  0.63217960     1.49100
Zn1227     Zn  0.88418719  0.69262879  0.63060323     1.49500
O1228       O  0.83406567  0.66609924  0.61984096    -1.83100
O1229       O  0.79275186  0.58127189  0.60123884    -0.73800
O1230       O  0.81026411  0.69076258  0.56876560    -0.73600
O1231       O  0.76545775  0.65497446  0.65336545    -0.73100
O1232       O  0.80819716  0.61828343  0.56809457    -0.73800
O1233       O  0.76821062  0.60510216  0.65388101    -0.69200
O1234       O  0.78979958  0.70689135  0.60229043    -0.74000
O1235       O  0.89363609  0.73645055  0.65038268    -0.73400
O1236       O  0.88057332  0.68868079  0.56723697    -0.74100
O1237       O  0.84073793  0.73314501  0.65343933    -0.73500
O1238       O  0.91843172  0.70975398  0.60000817    -0.74000
O1239       O  0.89563017  0.66105429  0.65250723    -0.73900
O1240       O  0.84629569  0.60796987  0.65063003    -0.73700
C1241       C  0.79397476  0.58716262  0.57706916     0.78100
C1242       C  0.79380659  0.70536233  0.57804234     0.78600
C1243       C  0.75308189  0.62274865  0.66022316     0.77600
C1244       C  0.87412811  0.74898893  0.65793918     0.77900
C1245       C  0.91199703  0.70553480  0.57587486     0.79100
C1246       C  0.87844642  0.62798728  0.65774385     0.78100
C1247       C  0.49862555  0.49890082  0.78809887     0.46400
H1248       H  0.49731693  0.49827055  0.80950067    -0.02600
C1249       C  0.50098027  0.49988450  0.73775509     0.46500
H1250       H  0.50203073  0.50039320  0.71628818    -0.02600
C1251       C  0.98138022  0.51905153  0.77578194    -0.16300
C1252       C  0.53703805  0.51665983  0.77704093    -0.16000
C1253       C  0.97959094  0.96146911  0.77547945    -0.16400
C1254       C  0.98340715  0.51974082  0.74923397    -0.16400
C1255       C  0.53764955  0.51661475  0.75046973    -0.15900
C1256       C  0.98035817  0.96251626  0.74889295    -0.16300
Zn1257     Zn  0.61778659  0.80879883  0.39580549     1.49700
Zn1258     Zn  0.66646840  0.83330355  0.44548976     1.49400
Zn1259     Zn  0.69183667  0.80769071  0.39780116     1.49100
Zn1260     Zn  0.69283595  0.88291429  0.39706384     1.49500
O1261       O  0.66720575  0.83317759  0.40843887    -1.83100
O1262       O  0.58174363  0.79293132  0.42532699    -0.73800
O1263       O  0.68678283  0.80634964  0.46113849    -0.73600
O1264       O  0.65872614  0.76420240  0.37736978    -0.73100
O1265       O  0.61833546  0.81282376  0.45894318    -0.73800
O1266       O  0.60791687  0.76534355  0.37523813    -0.73400
O1267       O  0.70851633  0.79030504  0.42838013    -0.74000
O1268       O  0.73655719  0.89201773  0.37708273    -0.73400
O1269       O  0.69273346  0.88093308  0.46022335    -0.74100
O1270       O  0.73483729  0.83988093  0.37624373    -0.73500
O1271       O  0.70991159  0.91796478  0.42700544    -0.74000
O1272       O  0.66064018  0.89336005  0.37492225    -0.73900
O1273       O  0.60952499  0.84193412  0.37332314    -0.73700
C1274       C  0.58726345  0.79744797  0.44956072     0.78100
C1275       C  0.70325027  0.79139639  0.45246065     0.78600
C1276       C  0.62647123  0.75081982  0.37006120     0.77600
C1277       C  0.74963128  0.87268810  0.37036843     0.77900
C1278       C  0.70796768  0.91208516  0.45119933     0.79100
C1279       C  0.62847141  0.87462605  0.36738488     0.78100
Zn1280     Zn  0.61874836  0.81101352  0.13426581     1.49700
Zn1281     Zn  0.69484000  0.88358423  0.13460905     1.49400
Zn1282     Zn  0.69157684  0.80781414  0.13473014     1.49100
Zn1283     Zn  0.66921950  0.83474695  0.08533339     1.49500
O1284       O  0.66849649  0.83421301  0.12270550    -1.83100
O1285       O  0.61007185  0.84576173  0.15447505    -0.73800
O1286       O  0.73768414  0.89204897  0.15498711    -0.73600
O1287       O  0.65705744  0.76490925  0.15506057    -0.73100
O1288       O  0.66335289  0.89463886  0.15721710    -0.73800
O1289       O  0.60692148  0.76735920  0.15633947    -0.73400
O1290       O  0.73400113  0.83915770  0.15739626    -0.74000
O1291       O  0.70061890  0.81750780  0.07138267    -0.73400
O1292       O  0.71250652  0.91872445  0.10473611    -0.74100
O1293       O  0.70947628  0.79063906  0.10474149    -0.73500
O1294       O  0.68686338  0.88333566  0.07110053    -0.74000
O1295       O  0.62089614  0.80404970  0.07048634    -0.73900
O1296       O  0.58469887  0.79463553  0.10366641    -0.73700
C1297       C  0.63014623  0.87741962  0.16235085     0.78100
C1298       C  0.74949014  0.87213241  0.16283212     0.78600
C1299       C  0.62479571  0.75221106  0.16213552     0.77600
C1300       C  0.71269199  0.79866919  0.08085806     0.77900
C1301       C  0.70525587  0.91411397  0.08073583     0.79100
C1302       C  0.58987787  0.79225938  0.07971296     0.78100
C1303       C  0.50269215  0.50209357  0.29118028     0.46400
H1304       H  0.50393188  0.50326508  0.31262529    -0.02600
C1305       C  0.49965874  0.49926590  0.24080497     0.46500
H1306       H  0.49845081  0.49818591  0.21936477    -0.02600
C1307       C  0.52362379  0.98614281  0.27920816    -0.16300
C1308       C  0.96413023  0.98124997  0.27970108    -0.16000
C1309       C  0.51727071  0.53834513  0.27814395    -0.16400
C1310       C  0.52219424  0.98455351  0.25279181    -0.16400
C1311       C  0.96401090  0.97996087  0.25330015    -0.15900
C1312       C  0.51561686  0.53696832  0.25172731    -0.16300
C1313       C  0.56935495  0.67360496  0.19626836     0.30700
C1314       C  0.53817174  0.64784000  0.20856663    -0.35600
C1315       C  0.53867032  0.61761248  0.21761831     0.16700
C1316       C  0.56784224  0.61306409  0.21477516     0.22500
C1317       C  0.59896036  0.63878734  0.20254871    -0.33700
C1318       C  0.59848771  0.66898608  0.19358839     0.16600
O1319       O  0.57468417  0.70371685  0.18598850    -0.25700
C1320       C  0.60774648  0.71859944  0.17674172     0.06400
C1321       C  0.62381030  0.69817707  0.18103316    -0.30600
O1322       O  0.56307485  0.58347544  0.22547072    -0.22400
C1323       C  0.53041296  0.56882667  0.23524412    -0.02400
C1324       C  0.51385402  0.58874114  0.23090562    -0.16900
H1325       H  0.51520391  0.65118609  0.21100689     0.21100
H1326       H  0.62207049  0.63561531  0.20037073     0.19500
H1327       H  0.65009921  0.70371734  0.17522422     0.19400
H1328       H  0.48785552  0.58327699  0.23739647     0.15300
C1329       C  0.83123881  0.92695393  0.19285322     0.30700
C1330       C  0.86247513  0.95896515  0.19820315    -0.35600
C1331       C  0.88739049  0.95639990  0.21397853     0.16700
C1332       C  0.88159461  0.92462601  0.22424821     0.22500
C1333       C  0.85042957  0.89261014  0.21880976    -0.33700
C1334       C  0.82583269  0.89507545  0.20260342     0.16600
O1335       O  0.80481234  0.92307832  0.17803770    -0.25700
C1336       C  0.78240404  0.88825452  0.17805128     0.06400
C1337       C  0.79407151  0.86944060  0.19297465    -0.30600
O1338       O  0.90801522  0.92850105  0.23907123    -0.22400
C1339       C  0.93117273  0.96306407  0.23791217    -0.02400
C1340       C  0.91994136  0.98180193  0.22256674    -0.16900
H1341       H  0.86716515  0.98403755  0.19039980     0.21100
H1342       H  0.84582306  0.86752168  0.22651503     0.19500
H1343       H  0.78114827  0.84108167  0.19610317     0.19400
H1344       H  0.93336002  0.01009088  0.21899130     0.15300
C1345       C  0.57678881  0.90888717  0.18885083     0.30700
C1346       C  0.54637567  0.91234470  0.19111620    -0.35600
C1347       C  0.54788770  0.93622921  0.20991839     0.16700
C1348       C  0.57702218  0.95482203  0.22581568     0.22500
C1349       C  0.60767161  0.95177308  0.22330566    -0.33700
C1350       C  0.60645439  0.92845400  0.20408875     0.16600
O1351       O  0.58104433  0.88802533  0.17256183    -0.25700
C1352       C  0.61406495  0.89471216  0.17708688     0.06400
C1353       C  0.63129833  0.91982961  0.19638866    -0.30600
O1354       O  0.57208861  0.97454400  0.24277198    -0.22400
C1355       C  0.53962832  0.96896016  0.23736347    -0.02400
C1356       C  0.52337692  0.94556247  0.21700134    -0.16900
H1357       H  0.52316105  0.89745851  0.17903914     0.21100
H1358       H  0.63080880  0.96653138  0.23547987     0.19500
H1359       H  0.65801428  0.92990753  0.20379452     0.19400
H1360       H  0.49691797  0.93593486  0.20922021     0.15300
C1361       C  0.83229866  0.92794596  0.34153561     0.30700
C1362       C  0.86309652  0.96014073  0.33565641    -0.35600
C1363       C  0.88814633  0.95769789  0.31995963     0.16700
C1364       C  0.88297016  0.92581809  0.31042496     0.22500
C1365       C  0.85241687  0.89362355  0.31657010    -0.33700
C1366       C  0.82760470  0.89601982  0.33252317     0.16600
O1367       O  0.80530386  0.92401229  0.35570297    -0.25700
C1368       C  0.78323954  0.88910890  0.35595753     0.06400
C1369       C  0.79579285  0.87032064  0.34197569    -0.30600
O1370       O  0.90911823  0.92978861  0.29529080    -0.22400
C1371       C  0.93151215  0.96457151  0.29541642    -0.02400
C1372       C  0.92003234  0.98332989  0.31048666    -0.16900
H1373       H  0.86715896  0.98530837  0.34272726     0.21100
H1374       H  0.84819942  0.86849082  0.30929093     0.19500
H1375       H  0.78319202  0.84193852  0.33909038     0.19400
H1376       H  0.93268559  0.51077811  0.31214639     0.15300
C1377       C  0.57000492  0.61344541  0.31566647     0.30700
C1378       C  0.59950312  0.63667593  0.33063598    -0.35600
C1379       C  0.60007085  0.66760557  0.33898425     0.16700
C1380       C  0.57329057  0.67498171  0.33323577     0.22500
C1381       C  0.54392820  0.65186764  0.31812613    -0.33700
C1382       C  0.54351981  0.62112371  0.30958107     0.16600
O1383       O  0.56406758  0.58309098  0.30574129    -0.25700
C1384       C  0.53362564  0.57149636  0.29298090     0.06400
C1385       C  0.51952105  0.59391112  0.29470847    -0.30600
O1386       O  0.57898432  0.70515895  0.34335370    -0.22400
C1387       C  0.60998678  0.71745178  0.35550734    -0.02400
C1388       C  0.62438641  0.69522938  0.35343736    -0.16900
H1389       H  0.62054859  0.63107364  0.33537775     0.21100
H1390       H  0.52291175  0.65749171  0.31333622     0.19500
H1391       H  0.99466380  0.58985254  0.28684282     0.19400
H1392       H  0.64893672  0.69874901  0.36165269     0.15300
C1393       C  0.54815131  0.93020876  0.31026898     0.30700
C1394       C  0.54488117  0.89763883  0.31746045    -0.35600
C1395       C  0.57383990  0.89949534  0.33090437     0.16700
C1396       C  0.60406539  0.93119979  0.33674119     0.22500
C1397       C  0.60723315  0.96383718  0.32969617    -0.33700
C1398       C  0.57811074  0.96200513  0.31642914     0.16600
O1399       O  0.52472175  0.93456539  0.29694087    -0.25700
C1400       C  0.53966973  0.96956432  0.29483776     0.06400
C1401       C  0.57281316  0.98810383  0.30660645    -0.30600
O1402       O  0.62773211  0.92665330  0.34967982    -0.22400
C1403       C  0.61237292  0.89160310  0.35223916    -0.02400
C1404       C  0.57880559  0.87336205  0.34093564    -0.16900
H1405       H  0.52142619  0.87260319  0.31284073     0.21100
H1406       H  0.63071039  0.98887264  0.33427330     0.19500
H1407       H  0.59078341  0.01648660  0.30699467     0.19400
H1408       H  0.56049436  0.84504173  0.34061557     0.15300
C1409       C  0.76676499  0.53428655  0.52208664     0.30700
C1410       C  0.76205411  0.52778293  0.49546681    -0.35600
C1411       C  0.74717879  0.99244219  0.48813907     0.16700
C1412       C  0.73658258  0.96541007  0.50596899     0.22500
C1413       C  0.74121382  0.97208913  0.53256974    -0.33700
C1414       C  0.75733459  0.50726309  0.53976203     0.16600
O1415       O  0.78031301  0.56545856  0.53315628    -0.25700
C1416       C  0.77952459  0.55841717  0.55821313     0.06400
C1417       C  0.76546898  0.52259966  0.56360534    -0.30600
O1418       O  0.72184255  0.93404285  0.49507231    -0.22400
C1419       C  0.72302720  0.94095497  0.46996737    -0.02400
C1420       C  0.73855992  0.97689038  0.46437428    -0.16900
H1421       H  0.76934437  0.54890053  0.48156831     0.21100
H1422       H  0.73288055  0.95095636  0.54659847     0.19500
H1423       H  0.76220236  0.50991449  0.58218583     0.19400
H1424       H  0.74245673  0.98953175  0.44571090     0.15300
C1425       C  0.53394292  0.77379805  0.50424752     0.30700
C1426       C  0.52762915  0.77101652  0.53089189    -0.35600
C1427       C  0.99159603  0.75066119  0.53817714     0.16700
C1428       C  0.96442032  0.73328229  0.52050717     0.22500
C1429       C  0.97089236  0.73574166  0.49384244    -0.33700
C1430       C  0.50663545  0.75750338  0.48652750     0.16600
O1431       O  0.56530813  0.79036439  0.49323926    -0.25700
C1432       C  0.55819219  0.78471341  0.46816353     0.06400
C1433       C  0.52206179  0.76453421  0.46267327    -0.30600
O1434       O  0.93323861  0.71493451  0.53166749    -0.22400
C1435       C  0.94051599  0.72052268  0.55675677    -0.02400
C1436       C  0.97642759  0.74254578  0.56206091    -0.16900
H1437       H  0.54903769  0.78352704  0.54480898     0.21100
H1438       H  0.94971956  0.72191243  0.47992715     0.19500
H1439       H  0.50926958  0.75553104  0.44407000     0.19400
H1440       H  0.98929184  0.75151686  0.58064564     0.15300
C1441       C  0.72764632  0.76250945  0.50743489     0.30700
C1442       C  0.73039728  0.75849295  0.53406239    -0.35600
C1443       C  0.75074080  0.74305244  0.54126719     0.16700
C1444       C  0.76701734  0.73227656  0.52338606     0.22500
C1445       C  0.76418342  0.73618302  0.49678708    -0.33700
C1446       C  0.74392808  0.75168037  0.48959619     0.16600
O1447       O  0.71085354  0.77722227  0.49650453    -0.25700
C1448       C  0.71643712  0.77582246  0.47139474     0.06400
C1449       C  0.73672890  0.76005971  0.46584202    -0.30600
O1450       O  0.78444239  0.71824233  0.53424717    -0.22400
C1451       C  0.77933281  0.71998352  0.55938391    -0.02400
C1452       C  0.75863887  0.73528580  0.56504360    -0.16900
H1453       H  0.71778433  0.76703856  0.54812800     0.21100
H1454       H  0.77701391  0.72786903  0.48273084     0.19500
H1455       H  0.74551256  0.75614947  0.44719650     0.19400
H1456       H  0.75029010  0.73953059  0.58375484     0.15300
C1457       C  0.95981989  0.57636643  0.71788280     0.30700
C1458       C  0.95910269  0.60784850  0.71365020    -0.35600
C1459       C  0.93332398  0.60558023  0.69617514     0.16700
C1460       C  0.90954692  0.57436356  0.68400094     0.22500
C1461       C  0.91073351  0.54304649  0.68782755    -0.33700
C1462       C  0.93685132  0.54544012  0.70501011     0.16600
O1463       O  0.98010341  0.57185332  0.73466609    -0.25700
C1464       C  0.97025930  0.53774822  0.73219187     0.06400
C1465       C  0.94384630  0.52006964  0.71382378    -0.30600
O1466       O  0.88676476  0.57798147  0.66924489    -0.22400
C1467       C  0.89640435  0.61205198  0.67174150    -0.02400
C1468       C  0.92533996  0.63060294  0.68811899    -0.16900
H1469       H  0.97691836  0.63221151  0.72365503     0.21100
H1470       H  0.89222201  0.51842344  0.67840782     0.19500
H1471       H  0.93034016  0.49215382  0.70893932     0.19400
H1472       H  0.93824048  0.65831885  0.69351545     0.15300
C1473       C  0.61733414  0.54008476  0.71771338     0.30700
C1474       C  0.64609367  0.53644860  0.70905487    -0.35600
C1475       C  0.67326025  0.56584057  0.69601562     0.16700
C1476       C  0.67223539  0.59669370  0.69192612     0.22500
C1477       C  0.64340921  0.60020724  0.70039468    -0.33700
C1478       C  0.61618840  0.57081068  0.71323270     0.16600
O1479       O  0.58953044  0.51645926  0.73097238    -0.25700
C1480       C  0.57032336  0.53225709  0.73471431     0.06400
C1481       C  0.58545948  0.56596521  0.72405249    -0.30600
O1482       O  0.70037242  0.62085719  0.67933604    -0.22400
C1483       C  0.71974592  0.60535402  0.67518031    -0.02400
C1484       C  0.70416359  0.57103626  0.68510288    -0.16900
H1485       H  0.64728978  0.51247968  0.71236136     0.21100
H1486       H  0.64231312  0.62425562  0.69722576     0.19500
H1487       H  0.57573105  0.58454206  0.72494337     0.19400
H1488       H  0.71399126  0.55254344  0.68414500     0.15300
C1489       C  0.95527057  0.89065757  0.70700292     0.30700
C1490       C  0.96098238  0.86780079  0.69119947    -0.35600
C1491       C  0.93066593  0.83549386  0.68486720     0.16700
C1492       C  0.89686285  0.82651133  0.69303281     0.22500
C1493       C  0.89112899  0.84938490  0.70888074    -0.33700
C1494       C  0.92157419  0.88145726  0.71562427     0.16600
O1495       O  0.98015413  0.92108462  0.71663069    -0.25700
C1496       C  0.96224475  0.93128574  0.73186289     0.06400
C1497       C  0.92569189  0.90785963  0.73189478    -0.30600
O1498       O  0.87238577  0.79486776  0.68480047    -0.22400
C1499       C  0.89087181  0.78327125  0.67151955    -0.02400
C1500       C  0.92724242  0.80743734  0.67095391    -0.16900
H1501       H  0.98737675  0.87434693  0.68485360     0.21100
H1502       H  0.86489320  0.84231154  0.71594785     0.19500
H1503       H  0.90546310  0.90938991  0.74316047     0.19400
H1504       H  0.94804824  0.80483456  0.66140486     0.15300
C1505       C  0.97244106  0.75141521  0.00499611     0.30700
C1506       C  0.98396229  0.76899162  0.02880242    -0.35600
C1507       C  0.51355603  0.76844648  0.04000215     0.16700
C1508       C  0.53158865  0.75382832  0.02786162     0.22500
C1509       C  0.52008434  0.73632385  0.00410579    -0.33700
C1510       C  0.98939105  0.73510132  0.99369303     0.16600
O1511       O  0.94453281  0.74685868  0.99159003    -0.25700
C1512       C  0.94347565  0.72706441  0.97164336     0.06400
C1513       C  0.97066911  0.71889614  0.97199480    -0.30600
O1514       O  0.56008551  0.75918467  0.04071925    -0.22400
C1515       C  0.55986476  0.77670213  0.06168024    -0.02400
C1516       C  0.53142482  0.78302998  0.06241848    -0.16900
H1517       H  0.97063691  0.78147235  0.03806717     0.21100
H1518       H  0.53372985  0.72431904  0.99462637     0.19500
H1519       H  0.97528855  0.70252004  0.95859577     0.19400
H1520       H  0.52603539  0.79804466  0.07657633     0.15300
C1521       C  0.75019525  0.51910085  0.99620565     0.30700
C1522       C  0.71938314  0.99039174  0.00639956    -0.35600
C1523       C  0.72314173  0.97585297  0.02950554     0.16700
C1524       C  0.75490612  0.98978201  0.04288027     0.22500
C1525       C  0.78557319  0.51888724  0.03292492    -0.33700
C1526       C  0.78212338  0.53290027  0.00934751     0.16600
O1527       O  0.75258087  0.53700477  0.97506476    -0.25700
C1528       C  0.78664118  0.56220106  0.97429334     0.06400
C1529       C  0.80641081  0.56091095  0.99505673    -0.30600
O1530       O  0.75246281  0.97102795  0.06364226    -0.22400
C1531       C  0.71882812  0.94463945  0.06327002    -0.02400
C1532       C  0.69942114  0.94626434  0.04247251    -0.16900
H1533       H  0.69427814  0.97919331  0.99616046     0.21100
H1534       H  0.81069346  0.52995965  0.04312808     0.19500
H1535       H  0.83417814  0.57886910  0.99948636     0.19400
H1536       H  0.67216116  0.92756016  0.03719279     0.15300
C1537       C  0.76976392  0.75256744  0.99539010     0.30700
C1538       C  0.77109683  0.78342428  0.00468490    -0.35600
C1539       C  0.75446927  0.78026547  0.02847982     0.16700
C1540       C  0.73814763  0.74908956  0.04248765     0.22500
C1541       C  0.73652917  0.71806376  0.03304211    -0.33700
C1542       C  0.75254386  0.72103285  0.00892101     0.16600
O1543       O  0.78444405  0.74984345  0.97390720    -0.25700
C1544       C  0.77588039  0.71594726  0.97334706     0.06400
C1545       C  0.75584931  0.69662904  0.99453042    -0.30600
O1546       O  0.72308351  0.75194200  0.06381106    -0.22400
C1547       C  0.72961155  0.78524956  0.06319990    -0.02400
C1548       C  0.74898790  0.80405369  0.04168830    -0.16900
H1549       H  0.78390506  0.80809372  0.99398307     0.21100
H1550       H  0.72323527  0.69325180  0.04354462     0.19500
H1551       H  0.74680332  0.66918166  0.99928173     0.19400
H1552       H  0.75647452  0.83086566  0.03604976     0.15300
C1553       C  0.90286860  0.58379055  0.82581490     0.30700
C1554       C  0.90271897  0.56662459  0.80280409    -0.35600
C1555       C  0.92743518  0.55465668  0.80132511     0.16700
C1556       C  0.95101535  0.55943008  0.82088933     0.22500
C1557       C  0.95076084  0.57606392  0.84409116    -0.33700
C1558       C  0.92581024  0.58774956  0.84570512     0.16600
O1559       O  0.88222981  0.59734742  0.83135264    -0.25700
C1560       C  0.89181703  0.60979142  0.85527646     0.06400
C1561       C  0.91869827  0.60438354  0.86512546    -0.30600
O1562       O  0.97263439  0.54716321  0.81488026    -0.22400
C1563       C  0.96288868  0.53441155  0.79102140    -0.02400
C1564       C  0.93419331  0.53767031  0.78205349    -0.16900
H1565       H  0.88474567  0.56301763  0.78706942     0.21100
H1566       H  0.96887277  0.57982030  0.85975875     0.19500
H1567       H  0.93132027  0.61186473  0.88390100     0.19400
H1568       H  0.91985775  0.52869853  0.76403217     0.15300
C1569       C  0.66398668  0.57887238  0.84698909     0.30700
C1570       C  0.62664371  0.55751720  0.84864856    -0.35600
C1571       C  0.60781704  0.54999870  0.82518865     0.16700
C1572       C  0.62474604  0.56262342  0.80186289     0.22500
C1573       C  0.66194288  0.58379242  0.80017171    -0.33700
C1574       C  0.68071742  0.59134621  0.82354060     0.16600
O1575       O  0.68679562  0.58938345  0.86641760    -0.25700
C1576       C  0.71857123  0.60881516  0.85528380     0.06400
C1577       C  0.71636737  0.61090012  0.82858587    -0.30600
O1578       O  0.60232524  0.55265400  0.78236925    -0.22400
C1579       C  0.57028189  0.53320665  0.79300128    -0.02400
C1580       C  0.57210187  0.53068481  0.81978231    -0.16900
H1581       H  0.61324161  0.54758371  0.86693585     0.21100
H1582       H  0.67529033  0.59374284  0.78186208     0.19500
H1583       H  0.73785469  0.62482497  0.81493152     0.19400
H1584       H  0.55050286  0.51664475  0.83331036     0.15300
C1585       C  0.91751764  0.82003537  0.82654620     0.30700
C1586       C  0.93509622  0.83713524  0.80371308    -0.35600
C1587       C  0.94560158  0.87324312  0.80180041     0.16700
C1588       C  0.93918325  0.89150394  0.82081942     0.22500
C1589       C  0.92219134  0.87457295  0.84392603    -0.33700
C1590       C  0.91188429  0.83843024  0.84595764     0.16600
O1591       O  0.90481307  0.78616929  0.83224004    -0.25700
C1592       C  0.89118889  0.78288058  0.85577759     0.06400
C1593       C  0.89506234  0.81460179  0.86528841    -0.30600
O1594       O  0.95044870  0.92493753  0.81440595    -0.22400
C1595       C  0.96412381  0.92803829  0.79086091    -0.02400
C1596       C  0.96250390  0.89677979  0.78248730    -0.16900
H1597       H  0.93998037  0.82320004  0.78837795     0.21100
H1598       H  0.91711676  0.88848904  0.85916797     0.19500
H1599       H  0.88635109  0.81927159  0.88371846     0.19400
H1600       H  0.47286592  0.89226825  0.76506466     0.15300
loop_ 
_geom_bond_atom_site_label_1 
_geom_bond_atom_site_label_2 
_geom_bond_distance 
_geom_bond_site_symmetry_2 
_ccdc_geom_bond_type 
Zn1           O5   1.978       .  S
Zn1           O6   2.069       .  S
Zn1          O10   2.073       .  S
Zn1          O17   2.067       .  S
Zn2           O5   1.955       .  S
Zn2           O7   2.001       .  S
Zn2           O9   2.007       .  S
Zn2          O13   2.027       .  S
Zn3           O5   1.958       .  S
Zn3           O8   2.001       .  S
Zn3          O11   2.028       .  S
Zn3          O14   1.997       .  S
Zn4           O5   1.960       .  S
Zn4          O12   2.021       .  S
Zn4          O15   2.004       .  S
Zn4          O16   2.011       .  S
O6           C18   1.280       .  A
O7           C19   1.270       .  A
O8           C20   1.272       .  A
O9           C18   1.273       .  A
O10          C20   1.280       .  A
O11          C19   1.272       .  A
O12          C21   1.272       .  A
O13          C22   1.273       .  A
O14          C21   1.269       .  A
O15          C22   1.270       .  A
O16          C23   1.273       .  A
O17          C23   1.281       .  A
C18         C360   1.479       .  S
C19         C312   1.467       .  S
C20         C392   1.477       .  S
C21         C344   1.462       .  S
C22         C328   1.466       .  S
C23         C376   1.479       .  S
Zn24         O28   1.968       .  S
Zn24         O29   2.043       .  S
Zn24         O33   2.033       .  S
Zn24         O40   2.015       .  S
Zn25         O28   1.921       .  S
Zn25         O30   1.943       .  S
Zn25         O32   1.949       .  S
Zn25         O36   1.948       .  S
Zn26         O28   1.969       .  S
Zn26         O31   2.029       .  S
Zn26         O34   2.045       .  S
Zn26         O37   2.034       .  S
Zn27         O28   1.965       .  S
Zn27         O35   2.018       .  S
Zn27         O38   2.043       .  S
Zn27         O39   2.023       .  S
O29          C41   1.273       .  A
O30          C42   1.263       .  A
O31          C43   1.276       .  A
O32          C41   1.263       .  A
O33          C43   1.277       .  A
O34          C42   1.275       .  A
O35          C44   1.275       .  A
O36          C45   1.262       .  A
O37          C44   1.275       .  A
O38          C45   1.273       .  A
O39          C46   1.276       .  A
O40          C46   1.274       .  A
C41         C216   1.460       .  S
C42         C251   1.459       .  S
C43         C283   1.474       .  S
C44         C299   1.472       .  S
C45         C235   1.459       .  S
C46         C267   1.465       .  S
C47          H48   1.109       .  S
C47          C52   1.553   1_665  S
C47        C1253   1.549       .  S
C47         C851   1.551   1_565  S
C49          H50   1.112   1_565  S
C49          C55   1.528   1_565  S
C49         C854   1.526   1_465  S
C49        C1256   1.525   1_455  S
C51         C847   1.552   1_545  S
C51          C54   1.377       .  D
C51         C363   1.499       .  S
C52          C55   1.376       .  D
C52         C379   1.496       .  S
C53        C1247   1.550       .  S
C53          C56   1.377       .  D
C53         C395   1.492       .  S
C54         C849   1.526       .  S
C54         C264   1.470       .  S
C55         C280   1.475       .  S
C56        C1249   1.525       .  S
C56         C296   1.475       .  S
Zn57         O61   1.962       .  S
Zn57         O62   2.034       .  S
Zn57         O66   2.017       .  S
Zn57         O73   2.021       .  S
Zn58         O61   1.919       .  S
Zn58         O63   1.953       .  S
Zn58         O65   1.951       .  S
Zn58         O69   1.954       .  S
Zn59         O61   1.962       .  S
Zn59         O64   2.012       .  S
Zn59         O67   2.044       .  S
Zn59         O70   2.008       .  S
Zn60         O61   1.964       .  S
Zn60         O68   2.023       .  S
Zn60         O71   2.039       .  S
Zn60         O72   2.024       .  S
O62          C74   1.273       .  A
O63          C75   1.264       .  A
O64          C76   1.273       .  A
O65          C74   1.264       .  A
O66          C76   1.273       .  A
O67          C75   1.274       .  A
O68          C77   1.275       .  A
O69          C78   1.264       .  A
O70          C77   1.274       .  A
O71          C78   1.273       .  A
O72          C79   1.275       .  A
O73          C79   1.275       .  A
C74         C232   1.458       .  S
C75         C248   1.460       .  S
C76         C187   1.462       .  S
C77         C168   1.466       .  S
C78         C219   1.460       .  S
C79         C203   1.469       .  S
Zn80         O84   1.961       .  S
Zn80         O85   2.021       .  S
Zn80         O89   2.048       .  S
Zn80         O96   2.036       .  S
Zn81         O84   1.960       .  S
Zn81         O86   2.002       .  S
Zn81         O88   2.034       .  S
Zn81         O92   2.036       .  S
Zn82         O84   1.961       .  S
Zn82         O87   2.008       .  S
Zn82         O90   2.030       .  S
Zn82         O93   2.031       .  S
Zn83         O84   1.935       .  S
Zn83         O91   1.989       .  S
Zn83         O94   1.995       .  S
Zn83         O95   1.991       .  S
O85          C97   1.274       .  A
O86          C98   1.272       .  A
O87          C99   1.273       .  A
O88          C97   1.276       .  A
O89          C99   1.277       .  A
O90          C98   1.276       .  A
O91         C100   1.269       .  A
O92         C101   1.273       .  A
O93         C100   1.273       .  A
O94         C101   1.270       .  A
O95         C102   1.269       .  A
O96         C102   1.274       .  A
C97         C152   1.470       .  S
C98         C136   1.464       .  S
C99         C120   1.472       .  S
C100        C347   1.462       .  S
C101        C331   1.465       .  S
C102        C315   1.463       .  S
C103        H104   1.112       .  S
C103        C109   1.532       .  S
C103       C1308   1.532   1_445  S
C103        C507   1.535   1_545  S
C105        H106   1.111       .  S
C105        C112   1.536   1_565  S
C105       C1311   1.535   1_455  S
C105        C510   1.538       .  S
C107        C503   1.532       .  S
C107        C110   1.369       .  D
C107        C200   1.468       .  S
C108       C1303   1.535       .  S
C108        C111   1.370       .  D
C108        C171   1.470       .  S
C109        C112   1.371       .  D
C109        C184   1.470       .  S
C110        C505   1.539   1_455  S
C110        C155   1.477       .  S
C111       C1305   1.535       .  S
C111        C139   1.471       .  S
C112        C123   1.477       .  S
C113        C118   1.381       .  A
C113        C114   1.404       .  A
C113        O119   1.321       .  A
C114        C115   1.404       .  A
C114        H125   1.082       .  S
C115        C124   1.360       .  A
C115        C116   1.381       .  A
C116        C117   1.403       .  A
C116        O122   1.320       .  A
C117        C118   1.403       .  A
C117        H126   1.082       .  S
C118        C121   1.360       .  A
O119        C120   1.331       .  A
C120        C121   1.392       .  A
C121        H127   1.083       .  S
O122        C123   1.330       .  A
C123        C124   1.391       .  A
C124        H128   1.083       .  S
C129        C134   1.381       .  A
C129        C130   1.401       .  A
C129        O135   1.316       .  A
C130        C131   1.400       .  A
C130        H141   1.082       .  S
C131        C140   1.360       .  A
C131        C132   1.381       .  A
C132        C133   1.403       .  A
C132        O138   1.317       .  A
C133        C134   1.402       .  A
C133        H142   1.082       .  S
C134        C137   1.363       .  A
O135        C136   1.329       .  A
C136        C137   1.390       .  A
C137        H143   1.082       .  S
O138        C139   1.330       .  A
C139        C140   1.387       .  A
C140        H144   1.083       .  S
C145        C150   1.380       .  A
C145        C146   1.404       .  A
C145        O151   1.318       .  A
C146        C147   1.402       .  A
C146        H157   1.082       .  S
C147        C156   1.363       .  A
C147        C148   1.380       .  A
C148        C149   1.405       .  A
C148        O154   1.318       .  A
C149        C150   1.404       .  A
C149        H158   1.082       .  S
C150        C153   1.365       .  A
O151        C152   1.330       .  A
C152        C153   1.392       .  A
C153        H159   1.082       .  S
O154        C155   1.332       .  A
C155        C156   1.389       .  A
C156        H160   1.082   1_455  S
C161        C166   1.381       .  A
C161        C162   1.403       .  A
C161        O167   1.318       .  A
C162        C163   1.402       .  A
C162        H173   1.082       .  S
C163        C172   1.362       .  A
C163        C164   1.381       .  A
C164        C165   1.402       .  A
C164        O170   1.317       .  A
C165        C166   1.401       .  A
C165        H174   1.082       .  S
C166        C169   1.360       .  A
O167        C168   1.330       .  A
C168        C169   1.391       .  A
C169        H175   1.083       .  S
O170        C171   1.329       .  A
C171        C172   1.388       .  A
C172        H576   1.083       .  S
H176        C572   1.083   1_545  S
C177        C182   1.381       .  A
C177        C178   1.401       .  A
C177        O183   1.315       .  A
C178        C179   1.400       .  A
C178        H189   1.082       .  S
C179        C188   1.360       .  A
C179        C180   1.381       .  A
C180        C181   1.402       .  A
C180        O186   1.317       .  A
C181        C182   1.401       .  A
C181        H190   1.082       .  S
C182        C185   1.361       .  A
O183        C184   1.329       .  A
C184        C185   1.388       .  A
C185        H991   1.081   1_455  S
O186        C187   1.330       .  A
C187        C188   1.389       .  A
C188        H192   1.082       .  S
H191        C985   1.082       .  S
C193        C198   1.381       .  A
C193        C194   1.402       .  A
C193        O199   1.316       .  A
C194        C195   1.401       .  A
C194        H205   1.082       .  S
C195        C204   1.361       .  A
C195        C196   1.380       .  A
C196        C197   1.404       .  A
C196        O202   1.318       .  A
C197        C198   1.402       .  A
C197        H206   1.082       .  S
C198        C201   1.363       .  A
O199        C200   1.329       .  A
C200        C201   1.388       .  A
C201        H207   1.082       .  S
O202        C203   1.331       .  A
C203        C204   1.391       .  A
C204        H208   1.082       .  S
C209        C214   1.380       .  A
C209        C210   1.402       .  A
C209        O215   1.311       .  A
C210        C611   1.398   1_545  A
C210        H221   1.082       .  S
C211        C220   1.363       .  A
C211        C212   1.380       .  A
C211        C610   1.398       .  A
C212        C213   1.402       .  A
C212        O218   1.311       .  A
C213        C614   1.398       .  A
C213        H222   1.082       .  S
C214        C217   1.364       .  A
C214        C613   1.398   1_545  A
O215        C216   1.329       .  A
C216        C217   1.389       .  A
C217        H223   1.082       .  S
O218        C219   1.329       .  A
C219        C220   1.389       .  A
C220        H224   1.082       .  S
C225        C230   1.381       .  A
C225        C226   1.401       .  A
C225        O231   1.311       .  A
C226       C1027   1.397   1_455  A
C226        H237   1.082       .  S
C227        C236   1.363       .  A
C227        C228   1.380       .  A
C227       C1026   1.396       .  A
C228        C229   1.402       .  A
C228        O234   1.311       .  A
C229       C1030   1.398       .  A
C229        H238   1.082       .  S
C230        C233   1.363       .  A
C230       C1029   1.398   1_455  A
O231        C232   1.329       .  A
C232        C233   1.388       .  A
C233        H239   1.082       .  S
O234        C235   1.330       .  A
C235        C236   1.388       .  A
C236        H240   1.082       .  S
C241        C246   1.380       .  A
C241        C242   1.402       .  A
C241        O247   1.311       .  A
C242        C243   1.398       .  A
C242        H253   1.082       .  S
C243        C252   1.364       .  A
C243        C244   1.380       .  A
C244        C245   1.401       .  A
C244        O250   1.311       .  A
C245        C246   1.398       .  A
C245        H254   1.082       .  S
C246        C249   1.364       .  A
O247        C248   1.330       .  A
C248        C249   1.389       .  A
C249        H255   1.082       .  S
O250        C251   1.330       .  A
C251        C252   1.388       .  A
C252        H256   1.082       .  S
C257        C262   1.381       .  A
C257        C258   1.402       .  A
C257        O263   1.318       .  A
C258        C259   1.402       .  A
C258        H269   1.082       .  S
C259        C268   1.361       .  A
C259        C260   1.381       .  A
C260        C261   1.402       .  A
C260        O266   1.317       .  A
C261        C262   1.401       .  A
C261        H270   1.082       .  S
C262        C265   1.360       .  A
O263        C264   1.330       .  A
C264        C265   1.388       .  A
C265        H271   1.082   1_545  S
O266        C267   1.330       .  A
C267        C268   1.390       .  A
C268        H272   1.082       .  S
C273        C278   1.381       .  A
C273        C274   1.406       .  A
C273        O279   1.321       .  A
C274        C275   1.405       .  A
C274        H285   1.083       .  S
C275        C284   1.365       .  A
C275        C276   1.380       .  A
C276        C277   1.403       .  A
C276        O282   1.319       .  A
C277        C278   1.402       .  A
C277        H286   1.083       .  S
C278        C281   1.361       .  A
O279        C280   1.331       .  A
C280        C281   1.388       .  A
C281        H287   1.083       .  S
O282        C283   1.331       .  A
C283        C284   1.393       .  A
C284        H288   1.083       .  S
C289        C294   1.381       .  A
C289        C290   1.402       .  A
C289        O295   1.318       .  A
C290        C291   1.402       .  A
C290        H301   1.083       .  S
C291        C300   1.360       .  A
C291        C292   1.380       .  A
C292        C293   1.405       .  A
C292        O298   1.321       .  A
C293        C294   1.404       .  A
C293        H302   1.083       .  S
C294        C297   1.363       .  A
O295        C296   1.329       .  A
C296        C297   1.391       .  A
C297        H303   1.082       .  S
O298        C299   1.332       .  A
C299        C300   1.391       .  A
C300        H304   1.083       .  S
C305        C310   1.381   1_554  A
C305        C306   1.404       .  A
C305        O311   1.320   1_554  A
C306       C1107   1.403       .  A
C306        H317   1.082       .  S
C307        C316   1.363       .  A
C307        C308   1.381       .  A
C307       C1106   1.403   1_455  A
C308        C309   1.401       .  A
C308        O314   1.316       .  A
C309       C1110   1.400   1_454  A
C309        H318   1.082   1_554  S
C310        C313   1.359       .  A
C310       C1109   1.400   1_556  A
O311        C312   1.331       .  A
C312        C313   1.390       .  A
C313        H319   1.083       .  S
O314        C315   1.329       .  A
C315        C316   1.390       .  A
C316        H320   1.082       .  S
C321        C326   1.381   1_556  A
C321        C722   1.400   1_546  A
C321        O327   1.317       .  A
C322        C323   1.400       .  A
C322        C721   1.400   1_554  A
C322        H333   1.082   1_554  S
C323        C332   1.358       .  A
C323        C324   1.381       .  A
C324        C725   1.405       .  A
C324        O330   1.321       .  A
C325        C326   1.405       .  A
C325        C724   1.405   1_545  A
C325        H334   1.082       .  S
C326        C329   1.364   1_554  A
O327        C328   1.329       .  A
C328        C329   1.392       .  A
C329        H335   1.082       .  S
O330        C331   1.331       .  A
C331        C332   1.389       .  A
C332        H336   1.083       .  S
C337        C342   1.381   1_556  A
C337        C338   1.399   1_556  A
C337        O343   1.316       .  A
C338        C339   1.399       .  A
C338        H349   1.082   1_554  S
C339        C348   1.357       .  A
C339        C340   1.381       .  A
C340        C341   1.404       .  A
C340        O346   1.319       .  A
C341        C342   1.403       .  A
C341        H350   1.082       .  S
C342        C345   1.362   1_554  A
O343        C344   1.329       .  A
C344        C345   1.391       .  A
C345        H351   1.083       .  S
O346        C347   1.330       .  A
C347        C348   1.389       .  A
C348        H352   1.083       .  S
C353        C358   1.380       .  A
C353        C354   1.405       .  A
C353        O359   1.325       .  A
C354        C355   1.406       .  A
C354        H365   1.082       .  S
C355        C364   1.358       .  A
C355        C356   1.378       .  A
C356        C357   1.406       .  A
C356        O362   1.326       .  A
C357        C358   1.407       .  A
C357        H366   1.082       .  S
C358        C361   1.361       .  A
O359        C360   1.332       .  A
C360        C361   1.394       .  A
C361        H367   1.083       .  S
O362        C363   1.334       .  A
C363        C364   1.398       .  A
C364        H368   1.080       .  S
C369        C374   1.379       .  A
C369        C370   1.410       .  A
C369        O375   1.321       .  A
C370        C371   1.407       .  A
C370        H381   1.082       .  S
C371        C380   1.371       .  A
C371        C372   1.377       .  A
C372        C373   1.404       .  A
C372        O378   1.314       .  A
C373        C374   1.402       .  A
C373        H382   1.082       .  S
C374        C377   1.365       .  A
O375        C376   1.335       .  A
C376        C377   1.391       .  A
C377        H383   1.082       .  S
O378        C379   1.332       .  A
C379        C380   1.396       .  A
C380        H384   1.081       .  S
C385        C390   1.381       .  A
C385        C386   1.402       .  A
C385        O391   1.323       .  A
C386        C387   1.404       .  A
C386        H397   1.082       .  S
C387        C396   1.355       .  A
C387        C388   1.378       .  A
C388        C389   1.405       .  A
C388        O394   1.325       .  A
C389        C390   1.407       .  A
C389        H398   1.082       .  S
C390        C393   1.361       .  A
O391        C392   1.331       .  A
C392        C393   1.394       .  A
C393        H399   1.083       .  S
O394        C395   1.333       .  A
C395        C396   1.395       .  A
C396       H1200   1.080       .  S
H400       C1196   1.080       .  S
Zn401       O405   1.978       .  S
Zn401       O406   2.071       .  S
Zn401       O410   2.074       .  S
Zn401       O417   2.068       .  S
Zn402       O405   1.955       .  S
Zn402       O407   2.002       .  S
Zn402       O409   2.008       .  S
Zn402       O413   2.025       .  S
Zn403       O405   1.959       .  S
Zn403       O408   2.001       .  S
Zn403       O411   2.027       .  S
Zn403       O414   1.999       .  S
Zn404       O405   1.960       .  S
Zn404       O412   2.021       .  S
Zn404       O415   2.002       .  S
Zn404       O416   2.011       .  S
O406        C418   1.280       .  A
O407        C419   1.270       .  A
O408        C420   1.273       .  A
O409        C418   1.273       .  A
O410        C420   1.281       .  A
O411        C419   1.272       .  A
O412        C421   1.272       .  A
O413        C422   1.273       .  A
O414        C421   1.269       .  A
O415        C422   1.270       .  A
O416        C423   1.273       .  A
O417        C423   1.281       .  A
C418        C760   1.480       .  S
C419        C712   1.466       .  S
C420        C792   1.477       .  S
C421        C744   1.463       .  S
C422        C728   1.465       .  S
C423        C776   1.479       .  S
Zn424       O428   1.967       .  S
Zn424       O429   2.041       .  S
Zn424       O433   2.032       .  S
Zn424       O440   2.013       .  S
Zn425       O428   1.920       .  S
Zn425       O430   1.941       .  S
Zn425       O432   1.950       .  S
Zn425       O436   1.948       .  S
Zn426       O428   1.967       .  S
Zn426       O431   2.027       .  S
Zn426       O434   2.041       .  S
Zn426       O437   2.032       .  S
Zn427       O428   1.964       .  S
Zn427       O435   2.017       .  S
Zn427       O438   2.041       .  S
Zn427       O439   2.021       .  S
O429        C441   1.273       .  A
O430        C442   1.263       .  A
O431        C443   1.276       .  A
O432        C441   1.263       .  A
O433        C443   1.276       .  A
O434        C442   1.274       .  A
O435        C444   1.275       .  A
O436        C445   1.262       .  A
O437        C444   1.275       .  A
O438        C445   1.273       .  A
O439        C446   1.275       .  A
O440        C446   1.274       .  A
C441        C616   1.460       .  S
C442        C651   1.457       .  S
C443        C683   1.473       .  S
C444        C699   1.471       .  S
C445        C635   1.459       .  S
C446        C667   1.464       .  S
C447        H448   1.109       .  S
C447        C853   1.549       .  S
C447        C452   1.553   1_655  S
C447       C1251   1.552       .  S
C449        H450   1.112       .  S
C449        C455   1.527       .  S
C449       C1254   1.526   1_455  S
C449        C856   1.525   1_455  S
C451       C1247   1.552       .  S
C451        C454   1.377       .  D
C451        C763   1.500       .  S
C452        C455   1.376       .  D
C452        C779   1.496       .  S
C453        C847   1.550       .  S
C453        C456   1.377       .  D
C453        C795   1.492       .  S
C454       C1249   1.526       .  S
C454        C664   1.469       .  S
C455        C680   1.475       .  S
C456        C849   1.525   1_565  S
C456        C696   1.475       .  S
Zn457       O461   1.966       .  S
Zn457       O462   2.042       .  S
Zn457       O466   2.019       .  S
Zn457       O473   2.015       .  S
Zn458       O461   1.920       .  S
Zn458       O463   1.957       .  S
Zn458       O465   1.945       .  S
Zn458       O469   1.952       .  S
Zn459       O461   1.961       .  S
Zn459       O464   2.011       .  S
Zn459       O467   2.033       .  S
Zn459       O470   2.017       .  S
Zn460       O461   1.966       .  S
Zn460       O468   2.022       .  S
Zn460       O471   2.040       .  S
Zn460       O472   2.028       .  S
O462        C474   1.274       .  A
O463        C475   1.264       .  A
O464        C476   1.273       .  A
O465        C474   1.264       .  A
O466        C476   1.274       .  A
O467        C475   1.273       .  A
O468        C477   1.275       .  A
O469        C478   1.264       .  A
O470        C477   1.275       .  A
O471        C478   1.273       .  A
O472        C479   1.275       .  A
O473        C479   1.274       .  A
C474        C632   1.458       .  S
C475        C648   1.459       .  S
C476        C587   1.466       .  S
C477        C568   1.468       .  S
C478        C619   1.460       .  S
C479        C603   1.470       .  S
Zn480       O484   1.962       .  S
Zn480       O485   2.020       .  S
Zn480       O489   2.049       .  S
Zn480       O496   2.035       .  S
Zn481       O484   1.963       .  S
Zn481       O486   2.003       .  S
Zn481       O488   2.036       .  S
Zn481       O492   2.040       .  S
Zn482       O484   1.961       .  S
Zn482       O487   2.006       .  S
Zn482       O490   2.024       .  S
Zn482       O493   2.037       .  S
Zn483       O484   1.935       .  S
Zn483       O491   1.988       .  S
Zn483       O494   1.994       .  S
Zn483       O495   1.992       .  S
O485        C497   1.274       .  A
O486        C498   1.272       .  A
O487        C499   1.273       .  A
O488        C497   1.276       .  A
O489        C499   1.277       .  A
O490        C498   1.275       .  A
O491        C500   1.269       .  A
O492        C501   1.273       .  A
O493        C500   1.273       .  A
O494        C501   1.270       .  A
O495        C502   1.269       .  A
O496        C502   1.274       .  A
C497        C552   1.470       .  S
C498        C536   1.463       .  S
C499        C520   1.474       .  S
C500        C747   1.463       .  S
C501        C731   1.466       .  S
C502        C715   1.463       .  S
C503        H504   1.112       .  S
C503        C509   1.531       .  S
C503        C908   1.534   1_455  S
C505        H506   1.111       .  S
C505        C911   1.534       .  S
C505        C512   1.535   1_655  S
C507        C510   1.370       .  D
C507        C600   1.468       .  S
C508        C903   1.535   1_565  S
C508        C511   1.370       .  D
C508        C571   1.471       .  S
C509        C512   1.369       .  D
C509        C584   1.467       .  S
C510        C555   1.478       .  S
C511        C905   1.534       .  S
C511        C539   1.469       .  S
C512        C523   1.473       .  S
C513        C518   1.380       .  A
C513        C514   1.406       .  A
C513        O519   1.322       .  A
C514        C515   1.405       .  A
C514        H525   1.082       .  S
C515        C524   1.363       .  A
C515        C516   1.381       .  A
C516        C517   1.401       .  A
C516        O522   1.318       .  A
C517        C518   1.402       .  A
C517        H526   1.082       .  S
C518        C521   1.359       .  A
O519        C520   1.332       .  A
C520        C521   1.392       .  A
C521        H527   1.083       .  S
O522        C523   1.328       .  A
C523        C524   1.390       .  A
C524        H528   1.082   1_455  S
C529        C534   1.381       .  A
C529        C530   1.401       .  A
C529        O535   1.316       .  A
C530        C531   1.400       .  A
C530        H541   1.082       .  S
C531        C540   1.359       .  A
C531        C532   1.381       .  A
C532        C533   1.402       .  A
C532        O538   1.317       .  A
C533        C534   1.401       .  A
C533        H542   1.082       .  S
C534        C537   1.362       .  A
O535        C536   1.329       .  A
C536        C537   1.390       .  A
C537        H543   1.082       .  S
O538        C539   1.329       .  A
C539        C540   1.387       .  A
C540        H544   1.083   1_565  S
C545        C550   1.381       .  A
C545        C546   1.403       .  A
C545        O551   1.318       .  A
C546        C547   1.402       .  A
C546        H557   1.082       .  S
C547        C556   1.362       .  A
C547        C548   1.380       .  A
C548        C549   1.405       .  A
C548        O554   1.319       .  A
C549        C550   1.404       .  A
C549        H558   1.082       .  S
C550        C553   1.365       .  A
O551        C552   1.330       .  A
C552        C553   1.392       .  A
C553        H559   1.082       .  S
O554        C555   1.332       .  A
C555        C556   1.389       .  A
C556        H560   1.082   1_455  S
C561        C566   1.381       .  A
C561        C562   1.404       .  A
C561        O567   1.318       .  A
C562        C563   1.402       .  A
C562        H573   1.082       .  S
C563        C572   1.363       .  A
C563        C564   1.381       .  A
C564        C565   1.402       .  A
C564        O570   1.317       .  A
C565        C566   1.401       .  A
C565        H574   1.082       .  S
C566        C569   1.361       .  A
O567        C568   1.331       .  A
C568        C569   1.391       .  A
C569        H575   1.083       .  S
O570        C571   1.329       .  A
C571        C572   1.389       .  A
C577        C582   1.381       .  A
C577        C578   1.402       .  A
C577        O583   1.317       .  A
C578        C579   1.401       .  A
C578        H589   1.082       .  S
C579        C588   1.360       .  A
C579        C580   1.381       .  A
C580        C581   1.401       .  A
C580        O586   1.317       .  A
C581        C582   1.400       .  A
C581        H590   1.082       .  S
C582        C585   1.359       .  A
O583        C584   1.328       .  A
C584        C585   1.388       .  A
C585       H1391   1.082   1_455  S
O586        C587   1.330       .  A
C587        C588   1.391       .  A
C588        H592   1.083       .  S
H591       C1385   1.082       .  S
C593        C598   1.381       .  A
C593        C594   1.402       .  A
C593        O599   1.317       .  A
C594        C595   1.401       .  A
C594        H605   1.082       .  S
C595        C604   1.360       .  A
C595        C596   1.380       .  A
C596        C597   1.404       .  A
C596        O602   1.319       .  A
C597        C598   1.402       .  A
C597        H606   1.082       .  S
C598        C601   1.362       .  A
O599        C600   1.329       .  A
C600        C601   1.388       .  A
C601        H607   1.082   1_565  S
O602        C603   1.331       .  A
C603        C604   1.391       .  A
C604        H608   1.082       .  S
C609        C614   1.380       .  A
C609        C610   1.401       .  A
C609        O615   1.311       .  A
C610        H621   1.082       .  S
C611        C620   1.364       .  A
C611        C612   1.380       .  A
C612        C613   1.402       .  A
C612        O618   1.311       .  A
C613        H622   1.082       .  S
C614        C617   1.364       .  A
O615        C616   1.329       .  A
C616        C617   1.389       .  A
C617        H623   1.082       .  S
O618        C619   1.329       .  A
C619        C620   1.389       .  A
C620        H624   1.082       .  S
C625        C630   1.381       .  A
C625        C626   1.400       .  A
C625        O631   1.310       .  A
C626       C1427   1.396   1_455  A
C626        H637   1.082       .  S
C627       C1426   1.396       .  A
C627        C636   1.362       .  A
C627        C628   1.380       .  A
C628        C629   1.403       .  A
C628        O634   1.311       .  A
C629       C1430   1.399       .  A
C629        H638   1.082       .  S
C630       C1429   1.399   1_455  A
C630        C633   1.365       .  A
O631        C632   1.329       .  A
C632        C633   1.389       .  A
C633        H639   1.082       .  S
O634        C635   1.330       .  A
C635        C636   1.388       .  A
C636        H640   1.082       .  S
C641        C646   1.381       .  A
C641        C642   1.402       .  A
C641        O647   1.312       .  A
C642        C643   1.398       .  A
C642        H653   1.082       .  S
C643        C652   1.364       .  A
C643        C644   1.381       .  A
C644        C645   1.400       .  A
C644        O650   1.310       .  A
C645        C646   1.397       .  A
C645        H654   1.082       .  S
C646        C649   1.361       .  A
O647        C648   1.330       .  A
C648        C649   1.388       .  A
C649        H655   1.082       .  S
O650        C651   1.329       .  A
C651        C652   1.388       .  A
C652        H656   1.082       .  S
C657        C662   1.381       .  A
C657        C658   1.402       .  A
C657        O663   1.317       .  A
C658        C659   1.401       .  A
C658        H669   1.082       .  S
C659        C668   1.361       .  A
C659        C660   1.381       .  A
C660        C661   1.402       .  A
C660        O666   1.317       .  A
C661        C662   1.401       .  A
C661        H670   1.082       .  S
C662        C665   1.360       .  A
O663        C664   1.329       .  A
C664        C665   1.388       .  A
C665        H671   1.083       .  S
O666        C667   1.330       .  A
C667        C668   1.390       .  A
C668        H672   1.082       .  S
C673        C678   1.381       .  A
C673        C674   1.406       .  A
C673        O679   1.321       .  A
C674        C675   1.405       .  A
C674        H685   1.083       .  S
C675        C684   1.365       .  A
C675        C676   1.380       .  A
C676        C677   1.403       .  A
C676        O682   1.318       .  A
C677        C678   1.401       .  A
C677        H686   1.083       .  S
C678        C681   1.361       .  A
O679        C680   1.331       .  A
C680        C681   1.387       .  A
C681        H687   1.083       .  S
O682        C683   1.331       .  A
C683        C684   1.393       .  A
C684        H688   1.083       .  S
C689        C694   1.381       .  A
C689        C690   1.402       .  A
C689        O695   1.318       .  A
C690        C691   1.402       .  A
C690        H701   1.083       .  S
C691        C700   1.360       .  A
C691        C692   1.380       .  A
C692        C693   1.405       .  A
C692        O698   1.321       .  A
C693        C694   1.404       .  A
C693        H702   1.083       .  S
C694        C697   1.363       .  A
O695        C696   1.329       .  A
C696        C697   1.391       .  A
C697        H703   1.082       .  S
O698        C699   1.331       .  A
C699        C700   1.391       .  A
C700        H704   1.083       .  S
C705        C710   1.381   1_554  A
C705        C706   1.404       .  A
C705        O711   1.319   1_554  A
C706       C1507   1.403       .  A
C706        H717   1.082       .  S
C707       C1506   1.404   1_455  A
C707        C716   1.363       .  A
C707        C708   1.381       .  A
C708        C709   1.401       .  A
C708        O714   1.316       .  A
C709       C1510   1.400   1_454  A
C709        H718   1.082   1_554  S
C710       C1509   1.400   1_556  A
C710        C713   1.359       .  A
O711        C712   1.331       .  A
C712        C713   1.390       .  A
C713        H719   1.083       .  S
O714        C715   1.329       .  A
C715        C716   1.390       .  A
C716        H720   1.082       .  S
C721        C726   1.381   1_556  A
C721        O727   1.316       .  A
C722        C723   1.400       .  A
C722        H733   1.082   1_554  S
C723        C732   1.358       .  A
C723        C724   1.381       .  A
C724        O730   1.321       .  A
C725        C726   1.404       .  A
C725        H734   1.082       .  S
C726        C729   1.363   1_554  A
O727        C728   1.329       .  A
C728        C729   1.392       .  A
C729        H735   1.083       .  S
O730        C731   1.331       .  A
C731        C732   1.389       .  A
C732        H736   1.083       .  S
C737        C742   1.381   1_556  A
C737        C738   1.400   1_556  A
C737        O743   1.316       .  A
C738        C739   1.399       .  A
C738        H749   1.082   1_554  S
C739        C748   1.356       .  A
C739        C740   1.381       .  A
C740        C741   1.404       .  A
C740        O746   1.320       .  A
C741        C742   1.404       .  A
C741        H750   1.082       .  S
C742        C745   1.362   1_554  A
O743        C744   1.329       .  A
C744        C745   1.391       .  A
C745        H751   1.083       .  S
O746        C747   1.331       .  A
C747        C748   1.389       .  A
C748        H752   1.083       .  S
C753        C758   1.380       .  A
C753        C754   1.405       .  A
C753        O759   1.325       .  A
C754        C755   1.407       .  A
C754        H765   1.082       .  S
C755        C764   1.358       .  A
C755        C756   1.378       .  A
C756        C757   1.406       .  A
C756        O762   1.326       .  A
C757        C758   1.408       .  A
C757        H766   1.082       .  S
C758        C761   1.362       .  A
O759        C760   1.333       .  A
C760        C761   1.394       .  A
C761        H767   1.083       .  S
O762        C763   1.334       .  A
C763        C764   1.398       .  A
C764        H768   1.080       .  S
C769        C774   1.379       .  A
C769        C770   1.410       .  A
C769        O775   1.321       .  A
C770        C771   1.407       .  A
C770        H781   1.082       .  S
C771        C780   1.371       .  A
C771        C772   1.377       .  A
C772        C773   1.404       .  A
C772        O778   1.315       .  A
C773        C774   1.402       .  A
C773        H782   1.082       .  S
C774        C777   1.365       .  A
O775        C776   1.335       .  A
C776        C777   1.391       .  A
C777        H783   1.082       .  S
O778        C779   1.332       .  A
C779        C780   1.396       .  A
C780        H784   1.081       .  S
C785        C790   1.381       .  A
C785        C786   1.402       .  A
C785        O791   1.323       .  A
C786        C787   1.404       .  A
C786        H797   1.082       .  S
C787        C796   1.355       .  A
C787        C788   1.378       .  A
C788        C789   1.405       .  A
C788        O794   1.325       .  A
C789        C790   1.407       .  A
C789        H798   1.082       .  S
C790        C793   1.361       .  A
O791        C792   1.331       .  A
C792        C793   1.394       .  A
C793        H799   1.083       .  S
O794        C795   1.333       .  A
C795        C796   1.395       .  A
C796       H1600   1.080       .  S
H800       C1596   1.080       .  S
Zn801       O805   1.978       .  S
Zn801       O806   2.071       .  S
Zn801       O810   2.074       .  S
Zn801       O817   2.068       .  S
Zn802       O805   1.956       .  S
Zn802       O807   2.000       .  S
Zn802       O809   2.009       .  S
Zn802       O813   2.026       .  S
Zn803       O805   1.959       .  S
Zn803       O808   2.001       .  S
Zn803       O811   2.026       .  S
Zn803       O814   2.000       .  S
Zn804       O805   1.960       .  S
Zn804       O812   2.022       .  S
Zn804       O815   2.003       .  S
Zn804       O816   2.012       .  S
O806        C818   1.280       .  A
O807        C819   1.270       .  A
O808        C820   1.272       .  A
O809        C818   1.273       .  A
O810        C820   1.281       .  A
O811        C819   1.272       .  A
O812        C821   1.272       .  A
O813        C822   1.273       .  A
O814        C821   1.269       .  A
O815        C822   1.270       .  A
O816        C823   1.273       .  A
O817        C823   1.281       .  A
C818       C1160   1.480       .  S
C819       C1112   1.466       .  S
C820       C1192   1.477       .  S
C821       C1144   1.464       .  S
C822       C1128   1.466       .  S
C823       C1176   1.479       .  S
Zn824       O828   1.966       .  S
Zn824       O829   2.039       .  S
Zn824       O833   2.031       .  S
Zn824       O840   2.014       .  S
Zn825       O828   1.921       .  S
Zn825       O830   1.944       .  S
Zn825       O832   1.952       .  S
Zn825       O836   1.950       .  S
Zn826       O828   1.968       .  S
Zn826       O831   2.025       .  S
Zn826       O834   2.041       .  S
Zn826       O837   2.031       .  S
Zn827       O828   1.963       .  S
Zn827       O835   2.016       .  S
Zn827       O838   2.038       .  S
Zn827       O839   2.020       .  S
O829        C841   1.273       .  A
O830        C842   1.263       .  A
O831        C843   1.276       .  A
O832        C841   1.263       .  A
O833        C843   1.276       .  A
O834        C842   1.274       .  A
O835        C844   1.275       .  A
O836        C845   1.263       .  A
O837        C844   1.275       .  A
O838        C845   1.273       .  A
O839        C846   1.275       .  A
O840        C846   1.274       .  A
C841       C1016   1.460       .  S
C842       C1051   1.458       .  S
C843       C1083   1.473       .  S
C844       C1099   1.471       .  S
C845       C1035   1.459       .  S
C846       C1067   1.465       .  S
C847        H848   1.109       .  S
C847        C852   1.553   1_565  S
C849        H850   1.112       .  S
C849        C855   1.527       .  S
C851        C854   1.377       .  D
C851       C1163   1.500       .  S
C852        C855   1.376       .  D
C852       C1179   1.496       .  S
C853        C856   1.377       .  D
C853       C1195   1.492       .  S
C854       C1064   1.469       .  S
C855       C1080   1.474       .  S
C856       C1096   1.474       .  S
Zn857       O861   1.966       .  S
Zn857       O862   2.044       .  S
Zn857       O866   2.020       .  S
Zn857       O873   2.016       .  S
Zn858       O861   1.918       .  S
Zn858       O863   1.957       .  S
Zn858       O865   1.942       .  S
Zn858       O869   1.951       .  S
Zn859       O861   1.961       .  S
Zn859       O864   2.012       .  S
Zn859       O867   2.033       .  S
Zn859       O870   2.017       .  S
Zn860       O861   1.965       .  S
Zn860       O868   2.019       .  S
Zn860       O871   2.038       .  S
Zn860       O872   2.024       .  S
O862        C874   1.274       .  A
O863        C875   1.264       .  A
O864        C876   1.274       .  A
O865        C874   1.263       .  A
O866        C876   1.274       .  A
O867        C875   1.273       .  A
O868        C877   1.275       .  A
O869        C878   1.263       .  A
O870        C877   1.275       .  A
O871        C878   1.273       .  A
O872        C879   1.275       .  A
O873        C879   1.275       .  A
C874       C1032   1.458       .  S
C875       C1048   1.459       .  S
C876        C987   1.466       .  S
C877        C968   1.467       .  S
C878       C1019   1.459       .  S
C879       C1003   1.469       .  S
Zn880       O884   1.962       .  S
Zn880       O885   2.022       .  S
Zn880       O889   2.049       .  S
Zn880       O896   2.035       .  S
Zn881       O884   1.961       .  S
Zn881       O886   2.003       .  S
Zn881       O888   2.032       .  S
Zn881       O892   2.036       .  S
Zn882       O884   1.961       .  S
Zn882       O887   2.008       .  S
Zn882       O890   2.026       .  S
Zn882       O893   2.039       .  S
Zn883       O884   1.935       .  S
Zn883       O891   1.987       .  S
Zn883       O894   1.995       .  S
Zn883       O895   1.993       .  S
O885        C897   1.274       .  A
O886        C898   1.272       .  A
O887        C899   1.274       .  A
O888        C897   1.276       .  A
O889        C899   1.277       .  A
O890        C898   1.275       .  A
O891        C900   1.269       .  A
O892        C901   1.273       .  A
O893        C900   1.274       .  A
O894        C901   1.270       .  A
O895        C902   1.269       .  A
O896        C902   1.274       .  A
C897        C952   1.469       .  S
C898        C936   1.464       .  S
C899        C920   1.475       .  S
C900       C1147   1.464       .  S
C901       C1131   1.465       .  S
C902       C1115   1.464       .  S
C903        H904   1.112       .  S
C903        C909   1.532       .  S
C903       C1307   1.531   1_545  S
C905        H906   1.111       .  S
C905       C1310   1.539       .  S
C905        C912   1.534   1_565  S
C907       C1303   1.531       .  S
C907        C910   1.370       .  D
C907       C1000   1.468       .  S
C908        C911   1.370       .  D
C908        C971   1.470       .  S
C909        C912   1.369       .  D
C909        C984   1.467       .  S
C910       C1305   1.540       .  S
C910        C955   1.477       .  S
C911        C939   1.469       .  S
C912        C923   1.473       .  S
C913        C918   1.380       .  A
C913        C914   1.406       .  A
C913        O919   1.322       .  A
C914        C915   1.405       .  A
C914        H925   1.082       .  S
C915        C924   1.364       .  A
C915        C916   1.381       .  A
C916        C917   1.402       .  A
C916        O922   1.318       .  A
C917        C918   1.402       .  A
C917        H926   1.082       .  S
C918        C921   1.359       .  A
O919        C920   1.332       .  A
C920        C921   1.392       .  A
C921        H927   1.083       .  S
O922        C923   1.328       .  A
C923        C924   1.390       .  A
C924        H928   1.082       .  S
C929        C934   1.381       .  A
C929        C930   1.401       .  A
C929        O935   1.316       .  A
C930        C931   1.400       .  A
C930        H941   1.082       .  S
C931        C940   1.360       .  A
C931        C932   1.381       .  A
C932        C933   1.402       .  A
C932        O938   1.317       .  A
C933        C934   1.401       .  A
C933        H942   1.082       .  S
C934        C937   1.362       .  A
O935        C936   1.329       .  A
C936        C937   1.390       .  A
C937        H943   1.082       .  S
O938        C939   1.329       .  A
C939        C940   1.387       .  A
C940        H944   1.083       .  S
C945        C950   1.381       .  A
C945        C946   1.404       .  A
C945        O951   1.318       .  A
C946        C947   1.402       .  A
C946        H957   1.082       .  S
C947        C956   1.363       .  A
C947        C948   1.380       .  A
C948        C949   1.405       .  A
C948        O954   1.318       .  A
C949        C950   1.404       .  A
C949        H958   1.082       .  S
C950        C953   1.365       .  A
O951        C952   1.330       .  A
C952        C953   1.392       .  A
C953        H959   1.082       .  S
O954        C955   1.331       .  A
C955        C956   1.389       .  A
C956        H960   1.082       .  S
C961        C966   1.381       .  A
C961        C962   1.403       .  A
C961        O967   1.318       .  A
C962        C963   1.402       .  A
C962        H973   1.082       .  S
C963        C972   1.362       .  A
C963        C964   1.381       .  A
C964        C965   1.402       .  A
C964        O970   1.317       .  A
C965        C966   1.401       .  A
C965        H974   1.082       .  S
C966        C969   1.361       .  A
O967        C968   1.331       .  A
C968        C969   1.390       .  A
C969        H975   1.083       .  S
O970        C971   1.329       .  A
C971        C972   1.389       .  A
C972       H1376   1.083       .  S
H976       C1372   1.082   1_545  S
C977        C982   1.381       .  A
C977        C978   1.402       .  A
C977        O983   1.317       .  A
C978        C979   1.401       .  A
C978        H989   1.082       .  S
C979        C988   1.360       .  A
C979        C980   1.381       .  A
C980        C981   1.401       .  A
C980        O986   1.317       .  A
C981        C982   1.400       .  A
C981        H990   1.082       .  S
C982        C985   1.359       .  A
O983        C984   1.328       .  A
C984        C985   1.388       .  A
O986        C987   1.329       .  A
C987        C988   1.391       .  A
C988        H992   1.083       .  S
C993        C998   1.381       .  A
C993        C994   1.401       .  A
C993        O999   1.316       .  A
C994        C995   1.400       .  A
C994       H1005   1.082       .  S
C995       C1004   1.360       .  A
C995        C996   1.380       .  A
C996        C997   1.404       .  A
C996       O1002   1.319       .  A
C997        C998   1.403       .  A
C997       H1006   1.082       .  S
C998       C1001   1.363       .  A
O999       C1000   1.328       .  A
C1000      C1001   1.388       .  A
C1001      H1007   1.082       .  S
O1002      C1003   1.331       .  A
C1003      C1004   1.391       .  A
C1004      H1008   1.082       .  S
C1009      C1014   1.380       .  A
C1009      C1010   1.402       .  A
C1009      O1015   1.311       .  A
C1010      C1411   1.398   1_545  A
C1010      H1021   1.082       .  S
C1011      C1410   1.398       .  A
C1011      C1020   1.364       .  A
C1011      C1012   1.380       .  A
C1012      C1013   1.401       .  A
C1012      O1018   1.311       .  A
C1013      C1414   1.397       .  A
C1013      H1022   1.082       .  S
C1014      C1413   1.398   1_545  A
C1014      C1017   1.363       .  A
O1015      C1016   1.329       .  A
C1016      C1017   1.389       .  A
C1017      H1023   1.082       .  S
O1018      C1019   1.329       .  A
C1019      C1020   1.389       .  A
C1020      H1024   1.082       .  S
C1025      C1030   1.380       .  A
C1025      C1026   1.400       .  A
C1025      O1031   1.309       .  A
C1026      H1037   1.082       .  S
C1027      C1036   1.363       .  A
C1027      C1028   1.380       .  A
C1028      C1029   1.401       .  A
C1028      O1034   1.311       .  A
C1029      H1038   1.082       .  S
C1030      C1033   1.365       .  A
O1031      C1032   1.329       .  A
C1032      C1033   1.389       .  A
C1033      H1039   1.082       .  S
O1034      C1035   1.330       .  A
C1035      C1036   1.388       .  A
C1036      H1040   1.082       .  S
C1041      C1046   1.381       .  A
C1041      C1042   1.402       .  A
C1041      O1047   1.312       .  A
C1042      C1043   1.399       .  A
C1042      H1053   1.082       .  S
C1043      C1052   1.364       .  A
C1043      C1044   1.381       .  A
C1044      C1045   1.400       .  A
C1044      O1050   1.310       .  A
C1045      C1046   1.396       .  A
C1045      H1054   1.082       .  S
C1046      C1049   1.361       .  A
O1047      C1048   1.330       .  A
C1048      C1049   1.388       .  A
C1049      H1055   1.082       .  S
O1050      C1051   1.329       .  A
C1051      C1052   1.389       .  A
C1052      H1056   1.082       .  S
C1057      C1062   1.382       .  A
C1057      C1058   1.401       .  A
C1057      O1063   1.317       .  A
C1058      C1059   1.401       .  A
C1058      H1069   1.082       .  S
C1059      C1068   1.360       .  A
C1059      C1060   1.381       .  A
C1060      C1061   1.402       .  A
C1060      O1066   1.317       .  A
C1061      C1062   1.401       .  A
C1061      H1070   1.082       .  S
C1062      C1065   1.360       .  A
O1063      C1064   1.329       .  A
C1064      C1065   1.388       .  A
C1065      H1071   1.083   1_545  S
O1066      C1067   1.330       .  A
C1067      C1068   1.389       .  A
C1068      H1072   1.082       .  S
C1073      C1078   1.381       .  A
C1073      C1074   1.406       .  A
C1073      O1079   1.320       .  A
C1074      C1075   1.405       .  A
C1074      H1085   1.083       .  S
C1075      C1084   1.364       .  A
C1075      C1076   1.380       .  A
C1076      C1077   1.402       .  A
C1076      O1082   1.318       .  A
C1077      C1078   1.401       .  A
C1077      H1086   1.083       .  S
C1078      C1081   1.361       .  A
O1079      C1080   1.331       .  A
C1080      C1081   1.387       .  A
C1081      H1087   1.083       .  S
O1082      C1083   1.330       .  A
C1083      C1084   1.393       .  A
C1084      H1088   1.083       .  S
C1089      C1094   1.381       .  A
C1089      C1090   1.402       .  A
C1089      O1095   1.318       .  A
C1090      C1091   1.401       .  A
C1090      H1101   1.083       .  S
C1091      C1100   1.360       .  A
C1091      C1092   1.380       .  A
C1092      C1093   1.405       .  A
C1092      O1098   1.321       .  A
C1093      C1094   1.404       .  A
C1093      H1102   1.083       .  S
C1094      C1097   1.363       .  A
O1095      C1096   1.329       .  A
C1096      C1097   1.391       .  A
C1097      H1103   1.082       .  S
O1098      C1099   1.331       .  A
C1099      C1100   1.391       .  A
C1100      H1104   1.083       .  S
C1105      C1110   1.381   1_554  A
C1105      C1106   1.404       .  A
C1105      O1111   1.320   1_554  A
C1106      H1117   1.082       .  S
C1107      C1116   1.363       .  A
C1107      C1108   1.381       .  A
C1108      C1109   1.401       .  A
C1108      O1114   1.316       .  A
C1109      H1118   1.082   1_554  S
C1110      C1113   1.359       .  A
O1111      C1112   1.331       .  A
C1112      C1113   1.390       .  A
C1113      H1119   1.083       .  S
O1114      C1115   1.330       .  A
C1115      C1116   1.390       .  A
C1116      H1120   1.082       .  S
C1121      C1126   1.381   1_556  A
C1121      C1522   1.400   1_546  A
C1121      O1127   1.316       .  A
C1122      C1521   1.400   1_554  A
C1122      C1123   1.400       .  A
C1122      H1133   1.082   1_554  S
C1123      C1132   1.358       .  A
C1123      C1124   1.381       .  A
C1124      C1525   1.405       .  A
C1124      O1130   1.321       .  A
C1125      C1524   1.405   1_545  A
C1125      C1126   1.405       .  A
C1125      H1134   1.082       .  S
C1126      C1129   1.364   1_554  A
O1127      C1128   1.329       .  A
C1128      C1129   1.392       .  A
C1129      H1135   1.082       .  S
O1130      C1131   1.331       .  A
C1131      C1132   1.389       .  A
C1132      H1136   1.083       .  S
C1137      C1142   1.381   1_556  A
C1137      C1138   1.400   1_556  A
C1137      O1143   1.317       .  A
C1138      C1139   1.400       .  A
C1138      H1149   1.082   1_554  S
C1139      C1148   1.357       .  A
C1139      C1140   1.381       .  A
C1140      C1141   1.404       .  A
C1140      O1146   1.320       .  A
C1141      C1142   1.404       .  A
C1141      H1150   1.082       .  S
C1142      C1145   1.362   1_554  A
O1143      C1144   1.329       .  A
C1144      C1145   1.391       .  A
C1145      H1151   1.083       .  S
O1146      C1147   1.331       .  A
C1147      C1148   1.389       .  A
C1148      H1152   1.083       .  S
C1153      C1158   1.380       .  A
C1153      C1154   1.405       .  A
C1153      O1159   1.325       .  A
C1154      C1155   1.407       .  A
C1154      H1165   1.082       .  S
C1155      C1164   1.359       .  A
C1155      C1156   1.378       .  A
C1156      C1157   1.406       .  A
C1156      O1162   1.326       .  A
C1157      C1158   1.408       .  A
C1157      H1166   1.082       .  S
C1158      C1161   1.362       .  A
O1159      C1160   1.333       .  A
C1160      C1161   1.394       .  A
C1161      H1167   1.083       .  S
O1162      C1163   1.334       .  A
C1163      C1164   1.398       .  A
C1164      H1168   1.080       .  S
C1169      C1174   1.379       .  A
C1169      C1170   1.410       .  A
C1169      O1175   1.321       .  A
C1170      C1171   1.407       .  A
C1170      H1181   1.082       .  S
C1171      C1180   1.371       .  A
C1171      C1172   1.377       .  A
C1172      C1173   1.404       .  A
C1172      O1178   1.315       .  A
C1173      C1174   1.402       .  A
C1173      H1182   1.082       .  S
C1174      C1177   1.366       .  A
O1175      C1176   1.335       .  A
C1176      C1177   1.391       .  A
C1177      H1183   1.082       .  S
O1178      C1179   1.332       .  A
C1179      C1180   1.396       .  A
C1180      H1184   1.081       .  S
C1185      C1190   1.381       .  A
C1185      C1186   1.402       .  A
C1185      O1191   1.323       .  A
C1186      C1187   1.404       .  A
C1186      H1197   1.082       .  S
C1187      C1196   1.355       .  A
C1187      C1188   1.378       .  A
C1188      C1189   1.405       .  A
C1188      O1194   1.325       .  A
C1189      C1190   1.407       .  A
C1189      H1198   1.082       .  S
C1190      C1193   1.361       .  A
O1191      C1192   1.331       .  A
C1192      C1193   1.394       .  A
C1193      H1199   1.083       .  S
O1194      C1195   1.333       .  A
C1195      C1196   1.395       .  A
Zn1201     O1205   1.978       .  S
Zn1201     O1206   2.070       .  S
Zn1201     O1210   2.073       .  S
Zn1201     O1217   2.069       .  S
Zn1202     O1205   1.955       .  S
Zn1202     O1207   2.001       .  S
Zn1202     O1209   2.008       .  S
Zn1202     O1213   2.027       .  S
Zn1203     O1205   1.959       .  S
Zn1203     O1208   2.001       .  S
Zn1203     O1211   2.027       .  S
Zn1203     O1214   1.999       .  S
Zn1204     O1205   1.960       .  S
Zn1204     O1212   2.022       .  S
Zn1204     O1215   2.003       .  S
Zn1204     O1216   2.012       .  S
O1206      C1218   1.280       .  A
O1207      C1219   1.270       .  A
O1208      C1220   1.272       .  A
O1209      C1218   1.273       .  A
O1210      C1220   1.281       .  A
O1211      C1219   1.272       .  A
O1212      C1221   1.272       .  A
O1213      C1222   1.273       .  A
O1214      C1221   1.269       .  A
O1215      C1222   1.270       .  A
O1216      C1223   1.273       .  A
O1217      C1223   1.281       .  A
C1218      C1560   1.480       .  S
C1219      C1512   1.467       .  S
C1220      C1592   1.477       .  S
C1221      C1544   1.463       .  S
C1222      C1528   1.466       .  S
C1223      C1576   1.479       .  S
Zn1224     O1228   1.968       .  S
Zn1224     O1229   2.040       .  S
Zn1224     O1233   2.030       .  S
Zn1224     O1240   2.014       .  S
Zn1225     O1228   1.920       .  S
Zn1225     O1230   1.942       .  S
Zn1225     O1232   1.948       .  S
Zn1225     O1236   1.949       .  S
Zn1226     O1228   1.968       .  S
Zn1226     O1231   2.026       .  S
Zn1226     O1234   2.043       .  S
Zn1226     O1237   2.032       .  S
Zn1227     O1228   1.963       .  S
Zn1227     O1235   2.018       .  S
Zn1227     O1238   2.041       .  S
Zn1227     O1239   2.023       .  S
O1229      C1241   1.273       .  A
O1230      C1242   1.263       .  A
O1231      C1243   1.276       .  A
O1232      C1241   1.263       .  A
O1233      C1243   1.276       .  A
O1234      C1242   1.274       .  A
O1235      C1244   1.275       .  A
O1236      C1245   1.263       .  A
O1237      C1244   1.275       .  A
O1238      C1245   1.273       .  A
O1239      C1246   1.276       .  A
O1240      C1246   1.274       .  A
C1241      C1416   1.459       .  S
C1242      C1451   1.458       .  S
C1243      C1483   1.473       .  S
C1244      C1499   1.472       .  S
C1245      C1435   1.459       .  S
C1246      C1467   1.465       .  S
C1247      H1248   1.109       .  S
C1247      C1252   1.553       .  S
C1249      H1250   1.112       .  S
C1249      C1255   1.527       .  S
C1251      C1254   1.377       .  D
C1251      C1563   1.499       .  S
C1252      C1255   1.376       .  D
C1252      C1579   1.496       .  S
C1253      C1256   1.377       .  D
C1253      C1595   1.491       .  S
C1254      C1464   1.469       .  S
C1255      C1480   1.474       .  S
C1256      C1496   1.475       .  S
Zn1257     O1261   1.967       .  S
Zn1257     O1262   2.044       .  S
Zn1257     O1266   2.021       .  S
Zn1257     O1273   2.017       .  S
Zn1258     O1261   1.919       .  S
Zn1258     O1263   1.957       .  S
Zn1258     O1265   1.943       .  S
Zn1258     O1269   1.954       .  S
Zn1259     O1261   1.963       .  S
Zn1259     O1264   2.012       .  S
Zn1259     O1267   2.035       .  S
Zn1259     O1270   2.019       .  S
Zn1260     O1261   1.965       .  S
Zn1260     O1268   2.017       .  S
Zn1260     O1271   2.038       .  S
Zn1260     O1272   2.023       .  S
O1262      C1274   1.274       .  A
O1263      C1275   1.264       .  A
O1264      C1276   1.274       .  A
O1265      C1274   1.263       .  A
O1266      C1276   1.274       .  A
O1267      C1275   1.273       .  A
O1268      C1277   1.274       .  A
O1269      C1278   1.264       .  A
O1270      C1277   1.275       .  A
O1271      C1278   1.273       .  A
O1272      C1279   1.275       .  A
O1273      C1279   1.275       .  A
C1274      C1432   1.458       .  S
C1275      C1448   1.459       .  S
C1276      C1387   1.467       .  S
C1277      C1368   1.466       .  S
C1278      C1419   1.460       .  S
C1279      C1403   1.469       .  S
Zn1280     O1284   1.963       .  S
Zn1280     O1285   2.022       .  S
Zn1280     O1289   2.049       .  S
Zn1280     O1296   2.035       .  S
Zn1281     O1284   1.962       .  S
Zn1281     O1286   2.002       .  S
Zn1281     O1288   2.030       .  S
Zn1281     O1292   2.036       .  S
Zn1282     O1284   1.961       .  S
Zn1282     O1287   2.010       .  S
Zn1282     O1290   2.028       .  S
Zn1282     O1293   2.038       .  S
Zn1283     O1284   1.935       .  S
Zn1283     O1291   1.988       .  S
Zn1283     O1294   1.995       .  S
Zn1283     O1295   1.991       .  S
O1285      C1297   1.274       .  A
O1286      C1298   1.272       .  A
O1287      C1299   1.274       .  A
O1288      C1297   1.275       .  A
O1289      C1299   1.277       .  A
O1290      C1298   1.275       .  A
O1291      C1300   1.269       .  A
O1292      C1301   1.273       .  A
O1293      C1300   1.273       .  A
O1294      C1301   1.270       .  A
O1295      C1302   1.269       .  A
O1296      C1302   1.274       .  A
C1297      C1352   1.469       .  S
C1298      C1336   1.465       .  S
C1299      C1320   1.475       .  S
C1300      C1547   1.464       .  S
C1301      C1531   1.465       .  S
C1302      C1515   1.463       .  S
C1303      H1304   1.112       .  S
C1303      C1309   1.532       .  S
C1305      H1306   1.111       .  S
C1305      C1312   1.535       .  S
C1307      C1310   1.369       .  D
C1307      C1400   1.468       .  S
C1308      C1311   1.368       .  D
C1308      C1371   1.471       .  S
C1309      C1312   1.369       .  D
C1309      C1384   1.467       .  S
C1310      C1355   1.477       .  S
C1311      C1339   1.468       .  S
C1312      C1323   1.474       .  S
C1313      C1318   1.380       .  A
C1313      C1314   1.406       .  A
C1313      O1319   1.322       .  A
C1314      C1315   1.405       .  A
C1314      H1325   1.082       .  S
C1315      C1324   1.363       .  A
C1315      C1316   1.381       .  A
C1316      C1317   1.402       .  A
C1316      O1322   1.319       .  A
C1317      C1318   1.402       .  A
C1317      H1326   1.082       .  S
C1318      C1321   1.360       .  A
O1319      C1320   1.332       .  A
C1320      C1321   1.392       .  A
C1321      H1327   1.083       .  S
O1322      C1323   1.329       .  A
C1323      C1324   1.391       .  A
C1324      H1328   1.082       .  S
C1329      C1334   1.381       .  A
C1329      C1330   1.402       .  A
C1329      O1335   1.316       .  A
C1330      C1331   1.401       .  A
C1330      H1341   1.082       .  S
C1331      C1340   1.361       .  A
C1331      C1332   1.381       .  A
C1332      C1333   1.402       .  A
C1332      O1338   1.316       .  A
C1333      C1334   1.401       .  A
C1333      H1342   1.082       .  S
C1334      C1337   1.361       .  A
O1335      C1336   1.330       .  A
C1336      C1337   1.390       .  A
C1337      H1343   1.082       .  S
O1338      C1339   1.329       .  A
C1339      C1340   1.387       .  A
C1340      H1344   1.083   1_565  S
C1345      C1350   1.381       .  A
C1345      C1346   1.403       .  A
C1345      O1351   1.318       .  A
C1346      C1347   1.402       .  A
C1346      H1357   1.082       .  S
C1347      C1356   1.363       .  A
C1347      C1348   1.380       .  A
C1348      C1349   1.405       .  A
C1348      O1354   1.318       .  A
C1349      C1350   1.403       .  A
C1349      H1358   1.082       .  S
C1350      C1353   1.364       .  A
O1351      C1352   1.330       .  A
C1352      C1353   1.392       .  A
C1353      H1359   1.082       .  S
O1354      C1355   1.331       .  A
C1355      C1356   1.389       .  A
C1356      H1360   1.082       .  S
C1361      C1366   1.381       .  A
C1361      C1362   1.403       .  A
C1361      O1367   1.318       .  A
C1362      C1363   1.402       .  A
C1362      H1373   1.082       .  S
C1363      C1372   1.362       .  A
C1363      C1364   1.381       .  A
C1364      C1365   1.402       .  A
C1364      O1370   1.317       .  A
C1365      C1366   1.401       .  A
C1365      H1374   1.082       .  S
C1366      C1369   1.361       .  A
O1367      C1368   1.331       .  A
C1368      C1369   1.390       .  A
C1369      H1375   1.083       .  S
O1370      C1371   1.329       .  A
C1371      C1372   1.389       .  A
C1377      C1382   1.381       .  A
C1377      C1378   1.402       .  A
C1377      O1383   1.317       .  A
C1378      C1379   1.402       .  A
C1378      H1389   1.082       .  S
C1379      C1388   1.360       .  A
C1379      C1380   1.381       .  A
C1380      C1381   1.401       .  A
C1380      O1386   1.317       .  A
C1381      C1382   1.400       .  A
C1381      H1390   1.082       .  S
C1382      C1385   1.359       .  A
O1383      C1384   1.328       .  A
C1384      C1385   1.388       .  A
O1386      C1387   1.330       .  A
C1387      C1388   1.391       .  A
C1388      H1392   1.083       .  S
C1393      C1398   1.381       .  A
C1393      C1394   1.401       .  A
C1393      O1399   1.316       .  A
C1394      C1395   1.401       .  A
C1394      H1405   1.082       .  S
C1395      C1404   1.360       .  A
C1395      C1396   1.380       .  A
C1396      C1397   1.404       .  A
C1396      O1402   1.319       .  A
C1397      C1398   1.403       .  A
C1397      H1406   1.082       .  S
C1398      C1401   1.363       .  A
O1399      C1400   1.328       .  A
C1400      C1401   1.388       .  A
C1401      H1407   1.082   1_565  S
O1402      C1403   1.331       .  A
C1403      C1404   1.391       .  A
C1404      H1408   1.082       .  S
C1409      C1414   1.380       .  A
C1409      C1410   1.401       .  A
C1409      O1415   1.311       .  A
C1410      H1421   1.082       .  S
C1411      C1420   1.364       .  A
C1411      C1412   1.380       .  A
C1412      C1413   1.401       .  A
C1412      O1418   1.311       .  A
C1413      H1422   1.082       .  S
C1414      C1417   1.364       .  A
O1415      C1416   1.329       .  A
C1416      C1417   1.389       .  A
C1417      H1423   1.082       .  S
O1418      C1419   1.329       .  A
C1419      C1420   1.389       .  A
C1420      H1424   1.082       .  S
C1425      C1430   1.380       .  A
C1425      C1426   1.400       .  A
C1425      O1431   1.309       .  A
C1426      H1437   1.082       .  S
C1427      C1436   1.362       .  A
C1427      C1428   1.380       .  A
C1428      C1429   1.403       .  A
C1428      O1434   1.312       .  A
C1429      H1438   1.082       .  S
C1430      C1433   1.365       .  A
O1431      C1432   1.329       .  A
C1432      C1433   1.389       .  A
C1433      H1439   1.082       .  S
O1434      C1435   1.330       .  A
C1435      C1436   1.388       .  A
C1436      H1440   1.082       .  S
C1441      C1446   1.381       .  A
C1441      C1442   1.402       .  A
C1441      O1447   1.312       .  A
C1442      C1443   1.398       .  A
C1442      H1453   1.082       .  S
C1443      C1452   1.364       .  A
C1443      C1444   1.380       .  A
C1444      C1445   1.400       .  A
C1444      O1450   1.310       .  A
C1445      C1446   1.397       .  A
C1445      H1454   1.082       .  S
C1446      C1449   1.362       .  A
O1447      C1448   1.330       .  A
C1448      C1449   1.388       .  A
C1449      H1455   1.082       .  S
O1450      C1451   1.329       .  A
C1451      C1452   1.389       .  A
C1452      H1456   1.082       .  S
C1457      C1462   1.381       .  A
C1457      C1458   1.402       .  A
C1457      O1463   1.317       .  A
C1458      C1459   1.401       .  A
C1458      H1469   1.082       .  S
C1459      C1468   1.361       .  A
C1459      C1460   1.381       .  A
C1460      C1461   1.402       .  A
C1460      O1466   1.317       .  A
C1461      C1462   1.401       .  A
C1461      H1470   1.082       .  S
C1462      C1465   1.360       .  A
O1463      C1464   1.329       .  A
C1464      C1465   1.388       .  A
C1465      H1471   1.083       .  S
O1466      C1467   1.330       .  A
C1467      C1468   1.390       .  A
C1468      H1472   1.082       .  S
C1473      C1478   1.381       .  A
C1473      C1474   1.406       .  A
C1473      O1479   1.320       .  A
C1474      C1475   1.405       .  A
C1474      H1485   1.083       .  S
C1475      C1484   1.364       .  A
C1475      C1476   1.380       .  A
C1476      C1477   1.402       .  A
C1476      O1482   1.318       .  A
C1477      C1478   1.401       .  A
C1477      H1486   1.083       .  S
C1478      C1481   1.361       .  A
O1479      C1480   1.331       .  A
C1480      C1481   1.387       .  A
C1481      H1487   1.083       .  S
O1482      C1483   1.330       .  A
C1483      C1484   1.393       .  A
C1484      H1488   1.083       .  S
C1489      C1494   1.381       .  A
C1489      C1490   1.402       .  A
C1489      O1495   1.319       .  A
C1490      C1491   1.402       .  A
C1490      H1501   1.083       .  S
C1491      C1500   1.360       .  A
C1491      C1492   1.380       .  A
C1492      C1493   1.405       .  A
C1492      O1498   1.321       .  A
C1493      C1494   1.404       .  A
C1493      H1502   1.083       .  S
C1494      C1497   1.363       .  A
O1495      C1496   1.329       .  A
C1496      C1497   1.391       .  A
C1497      H1503   1.082       .  S
O1498      C1499   1.332       .  A
C1499      C1500   1.391       .  A
C1500      H1504   1.083       .  S
C1505      C1510   1.381   1_554  A
C1505      C1506   1.405       .  A
C1505      O1511   1.320   1_554  A
C1506      H1517   1.082       .  S
C1507      C1516   1.363       .  A
C1507      C1508   1.381       .  A
C1508      C1509   1.401       .  A
C1508      O1514   1.316       .  A
C1509      H1518   1.082   1_554  S
C1510      C1513   1.359       .  A
O1511      C1512   1.331       .  A
C1512      C1513   1.390       .  A
C1513      H1519   1.083       .  S
O1514      C1515   1.329       .  A
C1515      C1516   1.390       .  A
C1516      H1520   1.082       .  S
C1521      C1526   1.381   1_556  A
C1521      O1527   1.317       .  A
C1522      C1523   1.399       .  A
C1522      H1533   1.082   1_554  S
C1523      C1532   1.358       .  A
C1523      C1524   1.381       .  A
C1524      O1530   1.321       .  A
C1525      C1526   1.405       .  A
C1525      H1534   1.082       .  S
C1526      C1529   1.364   1_554  A
O1527      C1528   1.329       .  A
C1528      C1529   1.392       .  A
C1529      H1535   1.082       .  S
O1530      C1531   1.331       .  A
C1531      C1532   1.389       .  A
C1532      H1536   1.083       .  S
C1537      C1542   1.381   1_556  A
C1537      C1538   1.400   1_556  A
C1537      O1543   1.316       .  A
C1538      C1539   1.400       .  A
C1538      H1549   1.082   1_554  S
C1539      C1548   1.357       .  A
C1539      C1540   1.381       .  A
C1540      C1541   1.404       .  A
C1540      O1546   1.320       .  A
C1541      C1542   1.404       .  A
C1541      H1550   1.082       .  S
C1542      C1545   1.362   1_554  A
O1543      C1544   1.329       .  A
C1544      C1545   1.391       .  A
C1545      H1551   1.083       .  S
O1546      C1547   1.331       .  A
C1547      C1548   1.389       .  A
C1548      H1552   1.083       .  S
C1553      C1558   1.380       .  A
C1553      C1554   1.405       .  A
C1553      O1559   1.325       .  A
C1554      C1555   1.407       .  A
C1554      H1565   1.082       .  S
C1555      C1564   1.358       .  A
C1555      C1556   1.378       .  A
C1556      C1557   1.406       .  A
C1556      O1562   1.326       .  A
C1557      C1558   1.408       .  A
C1557      H1566   1.082       .  S
C1558      C1561   1.362       .  A
O1559      C1560   1.333       .  A
C1560      C1561   1.394       .  A
C1561      H1567   1.083       .  S
O1562      C1563   1.334       .  A
C1563      C1564   1.398       .  A
C1564      H1568   1.080       .  S
C1569      C1574   1.379       .  A
C1569      C1570   1.410       .  A
C1569      O1575   1.321       .  A
C1570      C1571   1.407       .  A
C1570      H1581   1.082       .  S
C1571      C1580   1.371       .  A
C1571      C1572   1.377       .  A
C1572      C1573   1.404       .  A
C1572      O1578   1.315       .  A
C1573      C1574   1.402       .  A
C1573      H1582   1.082       .  S
C1574      C1577   1.366       .  A
O1575      C1576   1.335       .  A
C1576      C1577   1.392       .  A
C1577      H1583   1.082       .  S
O1578      C1579   1.332       .  A
C1579      C1580   1.396       .  A
C1580      H1584   1.081       .  S
C1585      C1590   1.381       .  A
C1585      C1586   1.402       .  A
C1585      O1591   1.323       .  A
C1586      C1587   1.403       .  A
C1586      H1597   1.082       .  S
C1587      C1596   1.355       .  A
C1587      C1588   1.378       .  A
C1588      C1589   1.405       .  A
C1588      O1594   1.324       .  A
C1589      C1590   1.407       .  A
C1589      H1598   1.082       .  S
C1590      C1593   1.361       .  A
O1591      C1592   1.331       .  A
C1592      C1593   1.394       .  A
C1593      H1599   1.083       .  S
O1594      C1595   1.333       .  A
C1595      C1596   1.395       .  A
