geometry optimzed in LAMMPS
_audit_creation_date              2020-12-01 
_audit_creation_method            'lammps2cif' 
_symmetry_space_group_name_H-M    'P1' 
_symmetry_Int_Tables_number       1 
_symmetry_cell_setting            triclinic 
loop_ 
_symmetry_equiv_pos_as_xyz 
  x,y,z 
_cell_length_a                    38.29389998 
_cell_length_b                    38.25272871780852 
_cell_length_c                    60.50852629976718 
_cell_angle_alpha                 89.89499844647942 
_cell_angle_beta                  89.95806775331211 
_cell_angle_gamma                 119.81946548183365 
loop_ 
_atom_site_label 
_atom_site_type_symbol 
_atom_site_fract_x 
_atom_site_fract_y 
_atom_site_fract_z 
_atom_site_charge 
C1          C  0.16754796  0.33438445  0.65587007     0.46500
H2          H  0.16738336  0.33309173  0.67421250    -0.02500
C3          C  0.16774403  0.33718820  0.61301872     0.46600
H4          H  0.16816391  0.33905227  0.59472557    -0.02500
C5          C  0.14993502  0.36005971  0.64630206    -0.16200
C6          C  0.21028175  0.35256060  0.64548188    -0.16000
C7          C  0.14248448  0.29253537  0.64463673    -0.16300
C8          C  0.15081405  0.36151428  0.62366608    -0.16300
C9          C  0.20943268  0.35277609  0.62281475    -0.15900
C10         C  0.14255043  0.29463782  0.62197847    -0.16200
C11         C  0.16662272  0.33420976  0.80504056     0.46500
H12         H  0.16649475  0.33543101  0.78670314    -0.02500
C13         C  0.16712304  0.33116494  0.84784216     0.46600
H14         H  0.16717047  0.32900549  0.86611796    -0.02500
C15         C  0.20947687  0.35699728  0.81527002    -0.16200
C16         C  0.14293097  0.35261432  0.81649088    -0.16000
C17         C  0.14814693  0.29090499  0.81444177    -0.16300
C18         C  0.20881496  0.35539234  0.83794640    -0.16300
C19         C  0.14367014  0.35077185  0.83925217    -0.15900
C20         C  0.14892794  0.29004268  0.83707663    -0.16200
C21         C  0.00051630  0.00302017  0.75027236     0.46500
H22         H  0.50132269  0.00387542  0.76912946    -0.02500
C23         C  0.99723263  0.00021358  0.70710827     0.46600
H24         H  0.99600368  0.99913278  0.68875995    -0.02500
C25         C  0.02240955  0.48109438  0.74243658    -0.16200
C26         C  0.45851441  0.47986474  0.74266307    -0.16000
C27         C  0.02037211  0.04486741  0.73917325    -0.16300
C28         C  0.02160372  0.48006825  0.71972134    -0.16300
C29         C  0.45815938  0.47976829  0.71992071    -0.15900
C30         C  0.01906823  0.04322480  0.71647071    -0.16200
C31         C  0.33250348  0.16699447  0.30504788     0.46500
H32         H  0.33143256  0.16613116  0.28671020    -0.02500
C33         C  0.33486063  0.16912448  0.34810209     0.46600
H34         H  0.33596233  0.17024400  0.36647879    -0.02500
C35         C  0.29051064  0.14894699  0.31615127    -0.16200
C36         C  0.35189312  0.14347551  0.31552692    -0.16000
C37         C  0.35702777  0.20985887  0.31468155    -0.16300
C38         C  0.29245237  0.15023645  0.33881253    -0.16300
C39         C  0.35246816  0.14485192  0.33818715    -0.15900
C40         C  0.35798812  0.21043417  0.33727302    -0.16200
C41         C  0.33619806  0.17059495  0.11179523     0.46500
H42         H  0.33733044  0.17240280  0.09342542    -0.02500
C43         C  0.33359301  0.16583789  0.15478689     0.46600
H44         H  0.33260982  0.16406324  0.17309821    -0.02500
C45         C  0.29353568  0.14775506  0.12110302    -0.16200
C46         C  0.35808927  0.14999965  0.12130772    -0.16000
C47         C  0.35541191  0.21129084  0.12290589    -0.16300
C48         C  0.29147628  0.14462378  0.14372599    -0.16300
C49         C  0.35652840  0.14651020  0.14387970    -0.15900
C50         C  0.35441804  0.20977382  0.14560873    -0.16200
C51         C  0.00160373  0.99932829  0.20892566     0.46500
H52         H  0.00175029  0.99790084  0.19061939    -0.02500
C53         C  0.00151885  0.00289408  0.25200174     0.46600
H54         H  0.00167583  0.00438202  0.27033422    -0.02500
C55         C  0.47822974  0.01998576  0.21791129    -0.16200
C56         C  0.47903036  0.45643998  0.22106759    -0.16000
C57         C  0.04413817  0.02241812  0.21911575    -0.16300
C58         C  0.47890867  0.02231384  0.24065043    -0.16300
C59         C  0.47992419  0.45893369  0.24373312    -0.15900
C60         C  0.04387626  0.02474358  0.24179510    -0.16200
Zn61       Zn  0.03298628  0.05752408  0.98816816     1.49700
Zn62       Zn  0.44417915  0.47642714  0.99068737     1.49400
Zn63       Zn  0.99761781  0.99535768  0.94878259     1.49100
Zn64       Zn  0.02702699  0.47274567  0.99015602     1.49500
O65         O  0.00077169  0.00015912  0.98029169    -1.83100
O66         O  0.50058903  0.07318907  0.00822617    -0.73700
O67         O  0.40196288  0.45851834  0.96618794    -0.73500
O68         O  0.02592752  0.04792886  0.93402682    -0.73000
O69         O  0.44134063  0.01646158  0.01038976    -0.73700
O70         O  0.05303542  0.09310341  0.96092940    -0.73300
O71         O  0.44227017  0.47270108  0.93722627    -0.73900
O72         O  0.04485539  0.45107871  0.96466079    -0.73300
O73         O  0.43193754  0.42812406  0.00954655    -0.74100
O74         O  0.02133957  0.46940298  0.93601432    -0.73400
O75         O  0.48980240  0.42756915  0.01000263    -0.73900
O76         O  0.07496588  0.00696585  0.00961634    -0.73800
O77         O  0.08131210  0.06780060  0.00638270    -0.73600
C78         C  0.46487746  0.05295997  0.01582842     0.78200
C79         C  0.40746650  0.45825689  0.94545257     0.78700
C80         C  0.04676446  0.08399647  0.94052998     0.77600
C81         C  0.03903878  0.45173625  0.94400172     0.78000
C82         C  0.45350498  0.41341527  0.01621245     0.79100
C83         C  0.09286593  0.04433086  0.01419632     0.78200
Zn84       Zn  0.03037154  0.47324755  0.46958952     1.49700
Zn85       Zn  0.44373488  0.46915441  0.47037886     1.49400
Zn86       Zn  0.99910484  0.00201962  0.51199256     1.49100
Zn87       Zn  0.02467862  0.05736140  0.47014310     1.49500
O88         O  0.99898850  0.00140534  0.48032419    -1.83100
O89         O  0.49512637  0.42620454  0.44999844    -0.73700
O90         O  0.40436878  0.44896338  0.49628221    -0.73500
O91         O  0.02132021  0.46552110  0.52352334    -0.73000
O92         O  0.43531351  0.42267314  0.45168362    -0.73700
O93         O  0.05083931  0.45367108  0.49520952    -0.73300
O94         O  0.44651016  0.47909302  0.52407064    -0.73900
O95         O  0.04670557  0.09775236  0.49577624    -0.73300
O96         O  0.43015035  0.00428115  0.45105931    -0.74100
O97         O  0.03326972  0.05612154  0.52415677    -0.73400
O98         O  0.48588127  0.06447323  0.45168562    -0.73900
O99         O  0.07028428  0.06863582  0.44921800    -0.73800
O100        O  0.07717674  0.01436191  0.45228617    -0.73600
C101        C  0.45821712  0.41001004  0.44443002     0.78200
C102        C  0.41114009  0.45795539  0.51667900     0.78700
C103        C  0.04260089  0.45164885  0.51574686     0.77600
C104        C  0.04886375  0.09144201  0.51631136     0.78000
C105        C  0.45020755  0.04098331  0.44496394     0.79100
C106        C  0.08812486  0.04911812  0.44430152     0.78200
C107        C  0.17295761  0.10076322  0.05006459     0.30800
C108        C  0.20384595  0.13562879  0.05984432    -0.35500
C109        C  0.22207947  0.12950687  0.07838192     0.16800
C110        C  0.21038865  0.09177239  0.08697463     0.22600
C111        C  0.17964311  0.05689600  0.07711483    -0.33600
C112        C  0.16194093  0.06297864  0.05831653     0.16700
O113        O  0.15107551  0.09940815  0.03292433    -0.25600
C114        C  0.12620638  0.06020024  0.02998796     0.06500
C115        C  0.13182880  0.03613056  0.04517166    -0.30500
O116        O  0.23263489  0.09307300  0.10392264    -0.22400
C117        C  0.25891006  0.13212124  0.10606170    -0.02400
C118        C  0.25390224  0.15615379  0.09063079    -0.16800
H119        H  0.21325334  0.16539963  0.05334609     0.21200
H120        H  0.17057010  0.02709718  0.08344930     0.19600
H121        H  0.11480636  0.00367607  0.04691887     0.19500
H122        H  0.27208676  0.18840815  0.08832099     0.15400
C123        C  0.37496669  0.28635894  0.08418050     0.30800
C124        C  0.36482857  0.30673976  0.06845208    -0.35500
C125        C  0.39641581  0.33445982  0.05510988     0.16800
C126        C  0.43526490  0.34135970  0.05694545     0.22600
C127        C  0.44541819  0.32081769  0.07263535    -0.33600
C128        C  0.41385602  0.29340793  0.08619340     0.16700
O129        O  0.34978272  0.25819817  0.09779066    -0.25600
C130        C  0.37290054  0.24763494  0.10900439     0.06500
C131        C  0.41299359  0.26819825  0.10240773    -0.30500
O132        O  0.46017042  0.36918224  0.04304918    -0.22400
C133        C  0.43696424  0.38027396  0.03225379    -0.02400
C134        C  0.39698762  0.35965201  0.03903387    -0.16800
H135        H  0.33441774  0.30134640  0.06675007     0.21200
H136        H  0.47576967  0.32598464  0.07421978     0.19600
H137        H  0.43728003  0.26354929  0.10789410     0.19500
H138        H  0.37225432  0.36337870  0.03331730     0.15400
C139        C  0.41360415  0.07301897  0.05692730     0.30800
C140        C  0.38330264  0.06267278  0.07268376    -0.35500
C141        C  0.38576133  0.09444831  0.08515664     0.16800
C142        C  0.41561116  0.13398176  0.08210509     0.22600
C143        C  0.44634688  0.14438278  0.06641056    -0.33600
C144        C  0.44420845  0.11228734  0.05409465     0.16700
O145        O  0.41681108  0.04773480  0.04360747    -0.25600
C146        C  0.45003289  0.07077481  0.03210193     0.06500
C147        C  0.46865060  0.11132186  0.03793508    -0.30500
O148        O  0.41058972  0.15896102  0.09492133    -0.22400
C149        C  0.37770567  0.13477057  0.10650615    -0.02400
C150        C  0.36093209  0.09444863  0.10115067    -0.16800
H151        H  0.35935905  0.03190882  0.07500623     0.21200
H152        H  0.47001380  0.17521959  0.06390709     0.19600
H153        H  0.49602131  0.13620810  0.03129718     0.19500
H154        H  0.33354576  0.06917462  0.10749769     0.15400
C155        C  0.39506229  0.30804262  0.16644215     0.30800
C156        C  0.40959198  0.34957514  0.16473095    -0.35500
C157        C  0.42895702  0.37246362  0.18343553     0.16800
C158        C  0.43360763  0.35558967  0.20255392     0.22600
C159        C  0.41865659  0.31379870  0.20437618    -0.33600
C160        C  0.39925116  0.29079527  0.18555958     0.16700
O161        O  0.37791425  0.28174205  0.15048913    -0.25600
C162        C  0.37083642  0.24688230  0.15922957     0.06500
C163        C  0.38307688  0.25052390  0.18121025    -0.30500
O164        O  0.45261013  0.38277052  0.21800173    -0.22400
C165        C  0.45989257  0.41750362  0.20880055    -0.02400
C166        C  0.44605964  0.41280912  0.18716433    -0.16800
H167        H  0.40646520  0.36316092  0.14969878     0.21200
H168        H  0.42222599  0.30029706  0.21932487     0.19600
H169        H  0.38197873  0.22742536  0.19202084     0.19500
H170        H  0.44726619  0.43549366  0.17598242     0.15400
C171        C  0.41219653  0.10148719  0.16242865     0.30800
C172        C  0.44279423  0.09136184  0.16154323    -0.35500
C173        C  0.44274997  0.06637517  0.17857635     0.16800
C174        C  0.41417158  0.05197214  0.19513252     0.22600
C175        C  0.38344049  0.06192830  0.19595372    -0.33600
C176        C  0.38390480  0.08747739  0.17912730     0.16700
O177        O  0.40690845  0.12470206  0.14831064    -0.25600
C178        C  0.37496800  0.12596252  0.15605994     0.06500
C179        C  0.35953591  0.10354519  0.17534864    -0.30500
O180        O  0.42154626  0.03176105  0.21030235    -0.22400
C181        C  0.45570557  0.03377351  0.20370213    -0.02400
C182        C  0.46983503  0.05420298  0.18374866    -0.16800
H183        H  0.46562172  0.10299895  0.14876703     0.21200
H184        H  0.36151970  0.05153723  0.20919703     0.19600
H185        H  0.33347521  0.09872480  0.18476046     0.19500
H186        H  0.99949908  0.06332758  0.17583167     0.15400
C187        C  0.14243839  0.05945911  0.19833186     0.30800
C188        C  0.18348950  0.07118602  0.19954851    -0.35500
C189        C  0.20711021  0.09216731  0.18117939     0.16800
C190        C  0.19125310  0.10062993  0.16283515     0.22600
C191        C  0.15018654  0.08887309  0.16161670    -0.33600
C192        C  0.12660802  0.06811420  0.18004296     0.16700
O193        O  0.11542298  0.04122170  0.21400983    -0.25600
C194        C  0.08179288  0.03840954  0.20585520     0.06500
C195        C  0.08685439  0.05418843  0.18459564    -0.30500
O196        O  0.21863816  0.12031287  0.14751286    -0.22400
C197        C  0.25267029  0.12473139  0.15607075    -0.02400
C198        C  0.24730319  0.10796821  0.17710813    -0.16800
H199        H  0.19620713  0.06491174  0.21396004     0.21200
H200        H  0.13760805  0.09580395  0.14737980     0.19600
H201        H  0.06498277  0.05668312  0.17441165     0.19500
H202        H  0.26950264  0.10684685  0.18766988     0.15400
C203        C  0.15607889  0.09783761  0.40105353     0.30800
C204        C  0.17145848  0.12187577  0.38203374    -0.35500
C205        C  0.20518938  0.12269857  0.37238894     0.16800
C206        C  0.22274010  0.10172608  0.38107780     0.22600
C207        C  0.20709973  0.07735398  0.39984783    -0.33600
C208        C  0.17321431  0.07618461  0.40931000     0.16700
O209        O  0.12455527  0.09225939  0.41267808    -0.25600
C210        C  0.12139894  0.06643166  0.42838978     0.06500
C211        C  0.15075913  0.05529538  0.42706157    -0.30500
O212        O  0.25507050  0.10818905  0.37014772    -0.22400
C213        C  0.25794639  0.13303639  0.35401173    -0.02400
C214        C  0.22778064  0.14319574  0.35447641    -0.16800
H215        H  0.15815021  0.13875826  0.37528283     0.21200
H216        H  0.22054055  0.06062671  0.40665006     0.19600
H217        H  0.15465879  0.03451160  0.43752245     0.19500
H218        H  0.22400043  0.16366586  0.34369238     0.15400
C219        C  0.43899415  0.33655952  0.40446188     0.30800
C220        C  0.44773393  0.31302930  0.39020040    -0.35500
C221        C  0.41751099  0.28934915  0.37500502     0.16800
C222        C  0.38119250  0.28876272  0.37398415     0.22600
C223        C  0.37243820  0.31214492  0.38824589    -0.33600
C224        C  0.40257506  0.33572829  0.40341479     0.16700
O225        O  0.46319704  0.36184663  0.41955034    -0.25600
C226        C  0.44177290  0.37710003  0.42830764     0.06500
C227        C  0.40379138  0.36177789  0.41897437    -0.30500
O228        O  0.35635718  0.26268033  0.35948314    -0.22400
C229        C  0.37722797  0.24679511  0.35090470    -0.02400
C230        C  0.41535129  0.26197224  0.35995238    -0.16800
H231        H  0.47596838  0.31304173  0.39096111     0.21200
H232        H  0.34393882  0.31163486  0.38771810     0.19600
H233        H  0.38100458  0.36985148  0.42256654     0.19500
H234        H  0.43719212  0.25247964  0.35679851     0.15400
C235        C  0.42934644  0.09592106  0.40637345     0.30800
C236        C  0.43756093  0.12965045  0.39354064    -0.35500
C237        C  0.40841911  0.12388687  0.37782507     0.16800
C238        C  0.37351782  0.08745985  0.37491930     0.22600
C239        C  0.36522013  0.05370627  0.38783179    -0.33600
C240        C  0.39441854  0.05948718  0.40358889     0.16700
O241        O  0.45290887  0.09440925  0.42168834    -0.25600
C242        C  0.43277824  0.05661113  0.42892209     0.06500
C243        C  0.39612055  0.03341808  0.41829781    -0.30500
O244        O  0.34986286  0.08936116  0.35974854    -0.22400
C245        C  0.37022765  0.12730851  0.35276511    -0.02400
C246        C  0.40659592  0.15029731  0.36351602    -0.16800
H247        H  0.46475303  0.15837955  0.39568125     0.21200
H248        H  0.33787851  0.02506607  0.38580971     0.19600
H249        H  0.37455233  0.00177965  0.42062399     0.19500
H250        H  0.42775110  0.18213154  0.36161681     0.15400
C251        C  0.45166246  0.37285237  0.27589521     0.30800
C252        C  0.45774091  0.34455867  0.28753069    -0.35500
C253        C  0.42338323  0.30685679  0.29113846     0.16800
C254        C  0.38562713  0.29741814  0.28368207     0.22600
C255        C  0.37954208  0.32574920  0.27210569    -0.33600
C256        C  0.41379010  0.36361397  0.26875258     0.16700
O257        O  0.47986302  0.40902484  0.26945499    -0.25600
C258        C  0.45968741  0.42321310  0.25823000     0.06500
C259        C  0.41845159  0.39646474  0.25749356    -0.30500
O260        O  0.35748145  0.26095821  0.28973975    -0.22400
C261        C  0.37749835  0.24694758  0.30125559    -0.02400
C262        C  0.41856011  0.27412309  0.30259851    -0.16800
H263        H  0.48721909  0.35140173  0.29330640     0.21200
H264        H  0.35010761  0.31883054  0.26621540     0.19600
H265        H  0.39584279  0.39954560  0.24833985     0.19500
H266        H  0.44114511  0.27090423  0.31168756     0.15400
C267        C  0.43814301  0.08095781  0.26089183     0.30800
C268        C  0.42508500  0.10932898  0.25952755    -0.35500
C269        C  0.40338165  0.11115206  0.27775552     0.16800
C270        C  0.39556572  0.08703267  0.29615905     0.22600
C271        C  0.40848735  0.05852964  0.29748925    -0.33600
C272        C  0.42982771  0.05641755  0.27914981     0.16700
O273        O  0.45756135  0.07325368  0.24541373    -0.25600
C274        C  0.46117362  0.04282774  0.25356409     0.06500
C275        C  0.44497045  0.03151799  0.27470829    -0.30500
O276        O  0.37575164  0.09450096  0.31151214    -0.22400
C277        C  0.37042482  0.12358499  0.30284745    -0.02400
C278        C  0.38684898  0.13498624  0.28177560    -0.16800
H279        H  0.43107132  0.12835247  0.24513151     0.21200
H280        H  0.40213390  0.03919738  0.31178444     0.19600
H281        H  0.44309224  0.00737958  0.28492538     0.19500
H282        H  0.38781949  0.15841820  0.27130048     0.15400
C283        C  0.12574084  0.05934533  0.27836739     0.30800
C284        C  0.14951189  0.05526830  0.29464207    -0.35500
C285        C  0.18924741  0.08710629  0.29632472     0.16800
C286        C  0.20473554  0.12105815  0.28314387     0.22600
C287        C  0.18070283  0.12548743  0.26706337    -0.33600
C288        C  0.14092291  0.09338897  0.26524763     0.16700
O289        O  0.08898801  0.03156562  0.27263350    -0.25600
C290        C  0.08054141  0.04779223  0.25545979     0.06500
C291        C  0.11138649  0.08664009  0.25049082    -0.30500
O292        O  0.24294253  0.14693100  0.28761467    -0.22400
C293        C  0.25179790  0.12923441  0.30394861    -0.02400
C294        C  0.21958234  0.09184032  0.30981538    -0.16800
H295        H  0.13818146  0.02854881  0.30486237     0.21200
H296        H  0.19243487  0.15163323  0.25636431     0.19600
H297        H  0.11277149  0.10595857  0.23702072     0.19500
H298        H  0.21850446  0.07137442  0.32252542     0.15400
C299        C  0.10325901  0.16672686  0.90637850     0.30800
C300        C  0.13614918  0.20348938  0.89993867    -0.35500
C301        C  0.13229082  0.21869819  0.87962069     0.16800
C302        C  0.09853247  0.19923927  0.86642996     0.22600
C303        C  0.06602589  0.16189555  0.87260199    -0.33600
C304        C  0.06988016  0.14665789  0.89295565     0.16700
O305        O  0.09948872  0.14794392  0.92524831    -0.25600
C306        C  0.06343522  0.11530570  0.92368243     0.06500
C307        C  0.04377787  0.11270610  0.90395568    -0.30500
O308        O  0.10014995  0.22081949  0.84904053    -0.22400
C309        C  0.13553776  0.25425670  0.85117323    -0.02400
C310        C  0.15683446  0.25442060  0.86976726    -0.16800
H311        H  0.16234029  0.21973443  0.91035172     0.21200
H312        H  0.03914245  0.14645007  0.86261280     0.19600
H313        H  0.01425603  0.08942184  0.89870817     0.19500
H314        H  0.18549665  0.27830694  0.87568800     0.15400
C315        C  0.34507226  0.41618687  0.90010472     0.30800
C316        C  0.33589752  0.40084824  0.87859989    -0.35500
C317        C  0.29807280  0.39186004  0.87080009     0.16800
C318        C  0.27140969  0.39783533  0.88333613     0.22600
C319        C  0.28025288  0.41249270  0.90500496    -0.33600
C320        C  0.31802736  0.42123373  0.91289598     0.16700
O321        O  0.37929924  0.42796151  0.91024891    -0.25600
C322        C  0.37411237  0.44020023  0.92988324     0.06500
C323        C  0.33641721  0.43652176  0.93266161    -0.30500
O324        O  0.23775891  0.38726781  0.87285193    -0.22400
C325        C  0.24279540  0.37452810  0.85333647    -0.02400
C326        C  0.27962205  0.37601442  0.85119859    -0.16800
H327        H  0.35692494  0.39652938  0.86862298     0.21200
H328        H  0.25918428  0.41682456  0.91494319     0.19600
H329        H  0.32499072  0.44527573  0.94670175     0.19500
H330        H  0.29052734  0.36546364  0.83771616     0.15400
C331        C  0.08882382  0.38326888  0.87173519     0.30800
C332        C  0.05771374  0.39094326  0.87700748    -0.35500
C333        C  0.05895855  0.40568871  0.89832046     0.16800
C334        C  0.08824874  0.41176115  0.91360391     0.22600
C335        C  0.11937992  0.40413873  0.90828931    -0.33600
C336        C  0.11853831  0.39021275  0.88681018     0.16700
O337        O  0.09378474  0.36948010  0.85274936    -0.25600
C338        C  0.12751248  0.36817319  0.85551488     0.06500
C339        C  0.14417599  0.38102604  0.87645468    -0.30500
O340        O  0.08442073  0.42734553  0.93223305    -0.22400
C341        C  0.05260157  0.43169727  0.92860786    -0.02400
C342        C  0.03550411  0.41864889  0.90787816    -0.16800
H343        H  0.03465516  0.38651152  0.86519818     0.21200
H344        H  0.14306200  0.40954408  0.91987793     0.19600
H345        H  0.17108885  0.38304625  0.88338347     0.19500
H346        H  0.01023355  0.41982598  0.90067505     0.15400
C347        C  0.36116956  0.41763993  0.76395174     0.30800
C348        C  0.32097515  0.38617039  0.76323505    -0.35500
C349        C  0.29513303  0.38708153  0.77941629     0.16800
C350        C  0.30820647  0.41673784  0.79531381     0.22600
C351        C  0.34847288  0.44794283  0.79616008    -0.33600
C352        C  0.37423893  0.44721684  0.77989712     0.16700
O353        O  0.38955550  0.42421897  0.74950052    -0.25600
C354        C  0.42126433  0.45852307  0.75615509     0.06500
C355        C  0.41368414  0.47390814  0.77522198    -0.30500
O356        O  0.27939010  0.41125277  0.80920773    -0.22400
C357        C  0.24731669  0.37759147  0.80225298    -0.02400
C358        C  0.25520044  0.36143782  0.78357358    -0.16800
H359        H  0.31045120  0.36300850  0.75067980     0.21200
H360        H  0.35887980  0.47140192  0.80853644     0.19600
H361        H  0.43347386  0.50197773  0.78351016     0.19500
H362        H  0.23506739  0.33370084  0.77509858     0.15400
C363        C  0.08520041  0.39474195  0.79668810     0.30800
C364        C  0.05397095  0.40398340  0.79717043    -0.35500
C365        C  0.05441782  0.42940751  0.78028343     0.16800
C366        C  0.08357670  0.44449913  0.76402387     0.22600
C367        C  0.11497238  0.43547830  0.76364999    -0.33600
C368        C  0.11452348  0.41006601  0.78055136     0.16700
O369        O  0.09064746  0.37184253  0.81094184    -0.25600
C370        C  0.12407455  0.37261496  0.80412670     0.06500
C371        C  0.14003408  0.39562820  0.78506430    -0.30500
O372        O  0.07703631  0.46581403  0.74916667    -0.22400
C373        C  0.04323474  0.46444725  0.75590500    -0.02400
C374        C  0.02807510  0.44263285  0.77538125    -0.16800
H375        H  0.03076503  0.39190986  0.80975651     0.21200
H376        H  0.13782898  0.44702997  0.75087410     0.19600
H377        H  0.16713467  0.40182566  0.77624824     0.19500
H378        H  0.01014549  0.94980681  0.78549810     0.15400
C379        C  0.09790069  0.20972693  0.77769402     0.30800
C380        C  0.06990598  0.18682562  0.76129874    -0.35500
C381        C  0.06008600  0.14628028  0.75976236     0.16800
C382        C  0.07695128  0.12940955  0.77315741     0.22600
C383        C  0.10528278  0.15243710  0.78936188    -0.33600
C384        C  0.11487880  0.19286025  0.79100411     0.16700
O385        O  0.10898039  0.24722919  0.78330469    -0.25600
C386        C  0.13316539  0.25432026  0.80054342     0.06500
C387        C  0.13863214  0.22181708  0.80564207    -0.30500
O388        O  0.06398861  0.09111115  0.76850898    -0.22400
C389        C  0.03861332  0.08334926  0.75178893    -0.02400
C390        C  0.03450463  0.11645887  0.74600261    -0.16800
H391        H  0.05609972  0.19946333  0.75078934     0.21200
H392        H  0.11851449  0.13960514  0.80015935     0.19600
H393        H  0.15605742  0.21911999  0.81892469     0.19500
H394        H  0.51716198  0.11887784  0.73332822     0.15400
C395        C  0.08477153  0.17915281  0.54775709     0.30800
C396        C  0.09072280  0.21723612  0.55325937    -0.35500
C397        C  0.10258392  0.22962809  0.57506816     0.16800
C398        C  0.10873404  0.20659125  0.59047400     0.22600
C399        C  0.10264791  0.16836579  0.58500607    -0.33600
C400        C  0.09042943  0.15578522  0.56320035     0.16700
O401        O  0.07149713  0.16066070  0.52864863    -0.25600
C402        C  0.06841537  0.12489777  0.53196416     0.06500
C403        C  0.07999941  0.12031151  0.55309553    -0.30500
O404        O  0.12162787  0.22520609  0.60960931    -0.22400
C405        C  0.12344519  0.26049631  0.60636354    -0.02400
C406        C  0.11150422  0.26453458  0.58524240    -0.16800
H407        H  0.08608418  0.23579236  0.54142431     0.21200
H408        H  0.10696788  0.14969233  0.59690743     0.19600
H409        H  0.07897862  0.09386751  0.56027798     0.19500
H410        H  0.11083382  0.29013608  0.57806707     0.15400
C411        C  0.32538185  0.40436680  0.54930710     0.30800
C412        C  0.28810162  0.37185416  0.55547004    -0.35500
C413        C  0.27546601  0.37311000  0.57702205     0.16800
C414        C  0.29757895  0.40422239  0.59153777     0.22600
C415        C  0.33507811  0.43650421  0.58546649    -0.33600
C416        C  0.34784283  0.43515569  0.56394543     0.16700
O417        O  0.34361418  0.40903338  0.53013377    -0.30400
C418        C  0.37822786  0.44314715  0.53267471     0.06500
C419        C  0.38242740  0.46067617  0.55332416    -0.30500
O420        O  0.27849610  0.40047420  0.61031068    -0.22400
C421        C  0.24392448  0.36633461  0.60773562    -0.02400
C422        C  0.24066507  0.34789608  0.58747143    -0.16800
H423        H  0.27011557  0.34744571  0.54424357     0.21200
H424        H  0.35283892  0.46111995  0.59662109     0.19600
H425        H  0.40793839  0.48765813  0.55979024     0.19500
H426        H  0.21532978  0.32084102  0.58093212     0.15400
C427        C  0.06721676  0.41474811  0.56211771     0.30800
C428        C  0.06292526  0.40065615  0.58391626    -0.35500
C429        C  0.09467926  0.39612805  0.59200789     0.16800
C430        C  0.12835616  0.40529879  0.57952300     0.22600
C431        C  0.13260146  0.41932138  0.55776083    -0.33600
C432        C  0.10062450  0.42321120  0.54954542     0.16700
O433        O  0.04170738  0.42203827  0.55140049    -0.25600
C434        C  0.05863816  0.43459658  0.53162761     0.06500
C435        C  0.09527955  0.43579850  0.52942680    -0.30500
O436        O  0.15322731  0.39657365  0.58975342    -0.22400
C437        C  0.13561989  0.38184472  0.60912115    -0.02400
C438        C  0.09882565  0.38053922  0.61143640    -0.16800
H439        H  0.03649849  0.39329464  0.59374938     0.21200
H440        H  0.15866444  0.42591012  0.54778910     0.19600
H441        H  0.11588122  0.44650780  0.51554468     0.19500
H442        H  0.07705179  0.36738555  0.62468889     0.15400
C443        C  0.04753611  0.12836615  0.68302282     0.30800
C444        C  0.04177240  0.15511580  0.66959723    -0.35500
C445        C  0.07567683  0.19344698  0.66638755     0.16800
C446        C  0.11254026  0.20483149  0.67593242     0.22600
C447        C  0.11826921  0.17812542  0.68927975    -0.33600
C448        C  0.08463168  0.13975236  0.69223845     0.16700
O449        O  0.01973063  0.09169464  0.68913308    -0.25600
C450        C  0.03949418  0.07955652  0.70232109     0.06500
C451        C  0.07999506  0.10808480  0.70463216    -0.30500
O452        O  0.14037920  0.24172133  0.67039033    -0.22400
C453        C  0.12126142  0.25411932  0.65696307    -0.02400
C454        C  0.08090347  0.22541722  0.65391257    -0.16800
H455        H  0.01291422  0.14669978  0.66222352     0.21200
H456        H  0.14703203  0.18664461  0.69680641     0.19600
H457        H  0.10207215  0.10661471  0.71516098     0.19500
H458        H  0.05907281  0.22744968  0.64343940     0.15400
C459        C  0.37399906  0.42415287  0.68542320     0.30800
C460        C  0.34968309  0.39431831  0.67006331    -0.35500
C461        C  0.31010269  0.38720296  0.66756679     0.16800
C462        C  0.29534294  0.40790271  0.67937717     0.22600
C463        C  0.31969143  0.43781292  0.69463981    -0.33600
C464        C  0.35922961  0.44501700  0.69706935     0.16700
O465        O  0.41138355  0.43468290  0.69106860    -0.25600
C466        C  0.42055118  0.46254955  0.70661441     0.06500
C467        C  0.38939319  0.47053674  0.71072602    -0.30500
O468        O  0.25781202  0.39716055  0.67403275    -0.22400
C469        C  0.24830394  0.36929844  0.65845778    -0.02400
C470        C  0.27969161  0.36175375  0.65391358    -0.16800
H471        H  0.36077680  0.37769136  0.66076116     0.21200
H472        H  0.30858398  0.45437446  0.70399185     0.19600
H473        H  0.38853389  0.49091422  0.72282067     0.19500
H474        H  0.28041743  0.34142635  0.64174067     0.15400
C475        C  0.11250837  0.42038425  0.66761748     0.30800
C476        C  0.10499085  0.45279624  0.66766868    -0.35500
C477        C  0.07701807  0.45077748  0.68334573     0.16800
C478        C  0.05784949  0.41902576  0.69795659     0.22600
C479        C  0.06506582  0.38642859  0.69774828    -0.33600
C480        C  0.09319097  0.38854307  0.68214572     0.16700
O481        O  0.13657904  0.41558038  0.65394038    -0.25600
C482        C  0.13278279  0.38023738  0.65975302     0.06500
C483        C  0.10642624  0.36217865  0.67736449    -0.30500
O484        O  0.03468916  0.42436270  0.71206003    -0.22400
C485        C  0.03896752  0.45995216  0.70642084    -0.02400
C486        C  0.06452915  0.47758264  0.68846617    -0.16800
H487        H  0.12005473  0.47790834  0.65634304     0.21200
H488        H  0.05018925  0.36144220  0.70916433     0.19600
H489        H  0.09668366  0.33289434  0.68466186     0.19500
H490        H  0.07741277  0.00835030  0.68140254     0.15400
C491        C  0.16432258  0.83182444  0.65504954     0.46500
H492        H  0.16429174  0.83082891  0.67339841    -0.02500
C493        C  0.16420586  0.83406681  0.61222347     0.46600
H494        H  0.16469557  0.83586428  0.59396109    -0.02500
C495        C  0.14592975  0.85673195  0.64535652    -0.16200
C496        C  0.20701013  0.85036729  0.64458770    -0.16000
C497        C  0.13985462  0.78975156  0.64402178    -0.16300
C498        C  0.14661607  0.85788430  0.62271225    -0.16300
C499        C  0.20601533  0.85042835  0.62192316    -0.15900
C500        C  0.13964515  0.79153598  0.62131240    -0.16200
C501        C  0.16673515  0.83502180  0.80474308     0.46500
H502        H  0.16657255  0.83488378  0.78639897    -0.02500
C503        C  0.16769518  0.83501522  0.84760528     0.46600
H504        H  0.16765851  0.83447931  0.86596892    -0.02500
C505        C  0.20964393  0.85894528  0.81492757    -0.16200
C506        C  0.14274868  0.85382540  0.81535977    -0.16000
C507        C  0.14859715  0.79239105  0.81511635    -0.16300
C508        C  0.20935506  0.85874130  0.83762243    -0.16300
C509        C  0.14364082  0.85325079  0.83807602    -0.15900
C510        C  0.14973231  0.79323380  0.83776842    -0.16200
C511        C  0.00058960  0.50209373  0.75247956     0.46500
H512        H  0.50148877  0.50274133  0.77104002    -0.02500
C513        C  0.99968499  0.50049777  0.70927737     0.46600
H514        H  0.99932252  0.49987041  0.69091706    -0.02500
C515        C  0.02135757  0.98114481  0.73996109    -0.16200
C516        C  0.45694135  0.98013813  0.74144119    -0.16000
C517        C  0.02071507  0.54428151  0.74168283    -0.16300
C518        C  0.01920622  0.97953968  0.71724171    -0.16300
C519        C  0.45528338  0.97908040  0.71870548    -0.15900
C520        C  0.02087224  0.54324694  0.71896037    -0.16200
C521        C  0.33288166  0.66706404  0.30492234     0.46500
H522        H  0.33152300  0.66544872  0.28660143    -0.02500
C523        C  0.33594839  0.67105596  0.34792439     0.46600
H524        H  0.33713699  0.67286798  0.36628590    -0.02500
C525        C  0.29096883  0.64899825  0.31615110    -0.16200
C526        C  0.35256189  0.64406287  0.31574970    -0.16000
C527        C  0.35743460  0.71047207  0.31404947    -0.16300
C528        C  0.29344421  0.65156231  0.33875005    -0.16300
C529        C  0.35363264  0.64646400  0.33842450    -0.15900
C530        C  0.35869865  0.71197257  0.33664968    -0.16200
C531        C  0.33352737  0.66813490  0.11251092     0.46500
H532        H  0.33429897  0.66941625  0.09412683    -0.02500
C533        C  0.33178941  0.66455752  0.15554856     0.46600
H534        H  0.33100006  0.66317912  0.17386916    -0.02500
C535        C  0.29112645  0.64599700  0.12201742    -0.16200
C536        C  0.35518180  0.64732928  0.12214249    -0.16000
C537        C  0.35319241  0.70914600  0.12327694    -0.16300
C538        C  0.28944053  0.64334253  0.14463530    -0.16300
C539        C  0.35410625  0.64442644  0.14474709    -0.15900
C540        C  0.35299050  0.70840527  0.14600783    -0.16200
C541        C  0.99949045  0.49749519  0.20956583     0.46500
H542        H  0.99908587  0.49579925  0.19126811    -0.02500
C543        C  0.00103646  0.50177309  0.25263398     0.46600
H544        H  0.00178338  0.50353632  0.27096301    -0.02500
C545        C  0.47819510  0.51977554  0.21894820    -0.16200
C546        C  0.48062654  0.95735432  0.21997912    -0.16000
C547        C  0.04235761  0.51953812  0.21934000    -0.16300
C548        C  0.47973435  0.52256455  0.24168671    -0.16300
C549        C  0.48080610  0.95959440  0.24267988    -0.15900
C550        C  0.04308130  0.52236298  0.24202918    -0.16200
Zn551      Zn  0.03166693  0.55847228  0.98933160     1.49700
Zn552      Zn  0.44509502  0.97612809  0.99103451     1.49400
Zn553      Zn  0.99698084  0.49967688  0.94847909     1.49100
Zn554      Zn  0.02717747  0.97100346  0.99109564     1.49500
O555        O  0.00000509  0.50186462  0.98011163    -1.83100
O556        O  0.49771752  0.57231764  0.00890145    -0.73700
O557        O  0.40298299  0.95838403  0.96622909    -0.73500
O558        O  0.02325130  0.55409577  0.93530563    -0.73000
O559        O  0.43887392  0.51502346  0.01057404    -0.73700
O560        O  0.05174551  0.59655549  0.96328480    -0.73300
O561        O  0.44287501  0.96803141  0.93762013    -0.73900
O562        O  0.04524738  0.94788887  0.96621570    -0.73300
O563        O  0.43172751  0.92805190  0.01046729    -0.74100
O564        O  0.01889115  0.96205920  0.93728145    -0.73400
O565        O  0.48902889  0.92626003  0.01136382    -0.73900
O566        O  0.07506099  0.50791132  0.00879525    -0.73800
O567        O  0.07968983  0.56815330  0.00746999    -0.73600
C568        C  0.46201920  0.55136283  0.01638136     0.78200
C569        C  0.40828128  0.95591010  0.94561719     0.78700
C570        C  0.04435945  0.58953121  0.94278338     0.77600
C571        C  0.03763111  0.94585403  0.94563629     0.78000
C572        C  0.45278175  0.91298911  0.01749317     0.79100
C573        C  0.09210882  0.54481159  0.01432458     0.78200
Zn574      Zn  0.02930998  0.97558371  0.47023947     1.49700
Zn575      Zn  0.44287261  0.96962068  0.47073167     1.49400
Zn576      Zn  0.00064692  0.49901132  0.51130545     1.49100
Zn577      Zn  0.02572115  0.55547619  0.46978714     1.49500
O578        O  0.00027275  0.49928097  0.47970258    -1.83100
O579        O  0.49480453  0.92759348  0.44994825    -0.73700
O580        O  0.40344996  0.94912802  0.49664458    -0.73500
O581        O  0.02005576  0.96876712  0.52435103    -0.73000
O582        O  0.43472027  0.92327985  0.45177271    -0.73700
O583        O  0.04838682  0.95541375  0.49597284    -0.73300
O584        O  0.44506036  0.98139385  0.52433826    -0.73900
O585        O  0.04726231  0.59489606  0.49561961    -0.73300
O586        O  0.43082819  0.50387908  0.45080626    -0.74100
O587        O  0.03455998  0.55271378  0.52364999    -0.73400
O588        O  0.48577593  0.56450706  0.45223858    -0.73900
O589        O  0.07155439  0.56727986  0.44904493    -0.73800
O590        O  0.07733232  0.51219649  0.45110233    -0.73600
C591        C  0.45797739  0.91123458  0.44425911     0.78200
C592        C  0.40987704  0.95892573  0.51696557     0.78700
C593        C  0.04055485  0.95400712  0.51652805     0.77600
C594        C  0.04947714  0.58813205  0.51606255     0.78000
C595        C  0.45029149  0.54091345  0.44528408     0.79100
C596        C  0.08878502  0.54741276  0.44361662     0.78200
C597        C  0.17093102  0.60033595  0.05098537     0.30800
C598        C  0.20064569  0.63498304  0.06151932    -0.35500
C599        C  0.21904753  0.62838954  0.07980960     0.16800
C600        C  0.20858141  0.59037106  0.08747670     0.22600
C601        C  0.17892899  0.55571076  0.07688757    -0.33600
C602        C  0.16108628  0.56230910  0.05831623     0.16700
O603        O  0.14907592  0.59941020  0.03394611    -0.25600
C604        C  0.12539502  0.56028064  0.03012723     0.06500
C605        C  0.13179023  0.53579368  0.04463177    -0.30500
O606        O  0.23109978  0.59132481  0.10420015    -0.22400
C607        C  0.25628454  0.63043777  0.10713308    -0.02400
C608        C  0.25026858  0.65486883  0.09246542    -0.16800
H609        H  0.20913658  0.66496164  0.05571931     0.21200
H610        H  0.17084592  0.52573203  0.08249054     0.19600
H611        H  0.11564093  0.50322531  0.04566967     0.19500
H612        H  0.26757374  0.68730961  0.09080295     0.15400
C613        C  0.37162681  0.78228082  0.08335273     0.30800
C614        C  0.36160952  0.80034970  0.06617932    -0.35500
C615        C  0.39409796  0.83186635  0.05501501     0.16800
C616        C  0.43366249  0.84425153  0.06020257     0.22600
C617        C  0.44367533  0.82645325  0.07752612    -0.33600
C618        C  0.41118978  0.79531975  0.08889339     0.16700
O619        O  0.34608839  0.75128739  0.09532637    -0.25600
C620        C  0.36951945  0.74500681  0.10902715     0.06500
C621        C  0.41033782  0.77124975  0.10574313    -0.30500
O622        O  0.45926024  0.87370211  0.04736419    -0.22400
C623        C  0.43584551  0.88056767  0.03393366    -0.02400
C624        C  0.39497555  0.85559901  0.03796368    -0.16800
H625        H  0.33068346  0.79030847  0.06173337     0.21200
H626        H  0.47460097  0.83603932  0.08173688     0.19600
H627        H  0.43550498  0.77127988  0.11388847     0.19500
H628        H  0.36975871  0.85503762  0.02956068     0.15400
C629        C  0.41137875  0.56988862  0.05845592     0.30800
C630        C  0.38123948  0.55939824  0.07434808    -0.35500
C631        C  0.38347516  0.59121893  0.08671548     0.16800
C632        C  0.41318659  0.63079821  0.08356911     0.22600
C633        C  0.44389406  0.64125533  0.06790488    -0.33600
C634        C  0.44175083  0.60925298  0.05556975     0.16700
O635        O  0.41430844  0.54487293  0.04477875    -0.25600
C636        C  0.44708365  0.56832094  0.03302614     0.06500
C637        C  0.46568206  0.60871231  0.03904602    -0.30500
O638        O  0.40776665  0.65589096  0.09602862    -0.22400
C639        C  0.37467007  0.63181827  0.10744844    -0.02400
C640        C  0.35821398  0.59137429  0.10240028    -0.16800
H641        H  0.35730321  0.52862127  0.07664039     0.21200
H642        H  0.46727712  0.67215929  0.06523724     0.19600
H643        H  0.49265841  0.63382535  0.03221332     0.19500
H644        H  0.33077961  0.56613283  0.10872426     0.15400
C645        C  0.39776082  0.80821291  0.16556119     0.30800
C646        C  0.41431085  0.85003502  0.16325392    -0.35500
C647        C  0.43293105  0.87316796  0.18204414     0.16800
C648        C  0.43513224  0.85621901  0.20172298     0.22600
C649        C  0.41841339  0.81423120  0.20407046    -0.33600
C650        C  0.39967907  0.79098805  0.18521292     0.16700
O651        O  0.38016956  0.78145743  0.14984777    -0.25600
C652        C  0.37064404  0.74628699  0.15922372     0.06500
C653        C  0.38171807  0.75030726  0.18143096    -0.30500
O654        O  0.45319644  0.88345666  0.21725991    -0.22400
C655        C  0.46230219  0.91839573  0.20762040    -0.02400
C656        C  0.45072221  0.91372104  0.18552463    -0.16800
H657        H  0.41284406  0.86358031  0.14780938     0.21200
H658        H  0.41990672  0.80070873  0.21951708     0.19600
H659        H  0.37851283  0.72706603  0.19283685     0.19500
H660        H  0.45351689  0.93649630  0.17389514     0.15400
C661        C  0.40878529  0.59787411  0.16294443     0.30800
C662        C  0.43842154  0.58643405  0.16157047    -0.35500
C663        C  0.43987835  0.56330639  0.17922376     0.16800
C664        C  0.41342214  0.55168798  0.19676819     0.22600
C665        C  0.38360350  0.56291097  0.19807293    -0.33600
C666        C  0.38266994  0.58671706  0.18062604     0.16700
O667        O  0.40277066  0.62014556  0.14849596    -0.25600
C668        C  0.37250947  0.62368710  0.15694722     0.06500
C669        C  0.35892154  0.60363884  0.17707977    -0.30500
O670        O  0.42196342  0.53282978  0.21223199    -0.22400
C671        C  0.45494826  0.53312944  0.20490496    -0.02400
C672        C  0.46691142  0.55086187  0.18411483    -0.16800
H673        H  0.45960760  0.59592621  0.14798594     0.21200
H674        H  0.36349247  0.55482214  0.21210467     0.19600
H675        H  0.33451648  0.60100417  0.18728139     0.19500
H676        H  0.99304798  0.55584779  0.17472219     0.15400
C677        C  0.13950673  0.55358151  0.19787803     0.30800
C678        C  0.18055255  0.56535889  0.19916019    -0.35500
C679        C  0.20453992  0.58787899  0.18124759     0.16800
C680        C  0.18896335  0.59753352  0.16321833     0.22600
C681        C  0.14788435  0.58558091  0.16188237    -0.33600
C682        C  0.12398886  0.56348268  0.17991050     0.16700
O683        O  0.11246311  0.53515384  0.21349924    -0.25600
C684        C  0.07923840  0.53366777  0.20566946     0.06500
C685        C  0.08442610  0.55017136  0.18460429    -0.30500
O686        O  0.21667656  0.61872689  0.14835087    -0.22400
C687        C  0.25064212  0.62297938  0.15689813    -0.02400
C688        C  0.24492971  0.60456283  0.17747030    -0.16800
H689        H  0.19306831  0.55837897  0.21340757     0.21200
H690        H  0.13560830  0.59369119  0.14796291     0.19600
H691        H  0.06299961  0.55415955  0.17483652     0.19500
H692        H  0.26701883  0.60285026  0.18784838     0.15400
C693        C  0.15836047  0.59923752  0.40153799     0.30800
C694        C  0.17593029  0.62653196  0.38395035    -0.35500
C695        C  0.20802782  0.62576255  0.37324108     0.16800
C696        C  0.22197209  0.60018580  0.37959868     0.22600
C697        C  0.20410659  0.57262047  0.39689258    -0.33600
C698        C  0.17195756  0.57319787  0.40745185     0.16700
O699        O  0.12792751  0.59452559  0.41388709    -0.25600
C700        C  0.12198585  0.56492662  0.42769891     0.06500
C701        C  0.14841956  0.55047454  0.42441917    -0.30500
O702        O  0.25336625  0.60566253  0.36809082    -0.22400
C703        C  0.25920677  0.63459830  0.35395329    -0.02400
C704        C  0.23202697  0.64840091  0.35625050    -0.16800
H705        H  0.16547944  0.64697975  0.37905440     0.21200
H706        H  0.21475286  0.55236928  0.40187500     0.19600
H707        H  0.14977035  0.52644430  0.43313608     0.19500
H708        H  0.23101424  0.67230890  0.34720646     0.15400
C709        C  0.44038549  0.84080647  0.40258226     0.30800
C710        C  0.44987089  0.81910290  0.38734693    -0.35500
C711        C  0.41882147  0.79384713  0.37291326     0.16800
C712        C  0.38111202  0.79023522  0.37345946     0.22600
C713        C  0.37173034  0.81201684  0.38857952    -0.33600
C714        C  0.40263520  0.83706140  0.40302160     0.16700
O715        O  0.46476049  0.86643041  0.41752525    -0.25600
C716        C  0.44212883  0.87900043  0.42767045     0.06500
C717        C  0.40322229  0.86161834  0.41935269    -0.30500
O718        O  0.35572724  0.76272708  0.35969567    -0.22400
C719        C  0.37755229  0.74894502  0.34994650    -0.02400
C720        C  0.41694603  0.76695161  0.35756639    -0.16800
H721        H  0.47914647  0.82129683  0.38698399     0.21200
H722        H  0.34211582  0.80900171  0.38933865     0.19600
H723        H  0.37922396  0.86720529  0.42421778     0.19500
H724        H  0.43987023  0.75934903  0.35347115     0.15400
C725        C  0.42702064  0.59733565  0.40886877     0.30800
C726        C  0.43359095  0.63207896  0.39756013    -0.35500
C727        C  0.40659040  0.62615357  0.38046400     0.16800
C728        C  0.37517851  0.58864890  0.37484500     0.22600
C729        C  0.36823426  0.55390937  0.38639396    -0.33600
C730        C  0.39528101  0.55984483  0.40353697     0.16700
O731        O  0.44979801  0.59574928  0.42468211    -0.25600
C732        C  0.43225180  0.55679898  0.42972417     0.06500
C733        C  0.39805249  0.53300007  0.41719417    -0.30500
O734        O  0.35336208  0.59032932  0.35845196    -0.22400
C735        C  0.37138631  0.62934890  0.35345612    -0.02400
C736        C  0.40427047  0.65307656  0.36676130    -0.16800
H737        H  0.45829525  0.66162198  0.40165227     0.21200
H738        H  0.34365055  0.52434356  0.38222736     0.19600
H739        H  0.37913337  0.50054417  0.41744819     0.19500
H740        H  0.42287396  0.68556675  0.36675214     0.15400
C741        C  0.45195140  0.87348783  0.27511856     0.30800
C742        C  0.45791778  0.84525089  0.28690092    -0.35500
C743        C  0.42363659  0.80737518  0.29027934     0.16800
C744        C  0.38596866  0.79773265  0.28259602     0.22600
C745        C  0.37996576  0.82604768  0.27089128    -0.33600
C746        C  0.41419339  0.86406980  0.26767978     0.16700
O747        O  0.48023690  0.90967564  0.26870541    -0.25600
C748        C  0.46027408  0.92373103  0.25715469     0.06500
C749        C  0.41903570  0.89688256  0.25625295    -0.30500
O750        O  0.35784639  0.76114386  0.28858806    -0.22400
C751        C  0.37783579  0.74722421  0.30024590    -0.02400
C752        C  0.41883951  0.77461802  0.30169824    -0.16800
H753        H  0.48730823  0.85222066  0.29289629     0.21200
H754        H  0.35062788  0.81898260  0.26476275     0.19600
H755        H  0.39658135  0.89983921  0.24686414     0.19500
H756        H  0.44142193  0.77157533  0.31089093     0.15400
C757        C  0.43951853  0.58163124  0.26176566     0.30800
C758        C  0.42574292  0.60938799  0.26009281    -0.35500
C759        C  0.40358884  0.61095962  0.27815982     0.16800
C760        C  0.39601059  0.58719029  0.29669546     0.22600
C761        C  0.40942197  0.55909787  0.29825810    -0.33600
C762        C  0.43122211  0.55723395  0.28008395     0.16700
O763        O  0.45929769  0.57410696  0.24644494    -0.25600
C764        C  0.46291841  0.54376338  0.25469730     0.06500
C765        C  0.44665969  0.53253849  0.27582320    -0.30500
O766        O  0.37627385  0.59485525  0.31201732    -0.22400
C767        C  0.37075257  0.62369898  0.30319115    -0.02400
C768        C  0.38684458  0.63463385  0.28201857    -0.16800
H769        H  0.43161672  0.62820347  0.24561436     0.21200
H770        H  0.40319903  0.53996688  0.31263057     0.19600
H771        H  0.44459706  0.50833407  0.28605238     0.19500
H772        H  0.38775041  0.65790932  0.27143344     0.15400
C773        C  0.12539839  0.55766033  0.27867005     0.30800
C774        C  0.14860386  0.55486206  0.29581675    -0.35500
C775        C  0.18877527  0.58623941  0.29704506     0.16800
C776        C  0.20512893  0.61844797  0.28258589     0.22600
C777        C  0.18170955  0.62159021  0.26566906    -0.33600
C778        C  0.14158238  0.59011477  0.26436471     0.16700
O779        O  0.08815089  0.53022538  0.27336640    -0.25600
C780        C  0.08048922  0.54515633  0.25528774     0.06500
C781        C  0.11233967  0.58284192  0.24933658    -0.30500
O782        O  0.24352467  0.64416365  0.28672308    -0.22400
C783        C  0.25182954  0.62832535  0.30418517    -0.02400
C784        C  0.21887778  0.59207254  0.31110007    -0.16800
H785        H  0.13650540  0.52948016  0.30708273     0.21200
H786        H  0.19411436  0.64641908  0.25403812     0.19600
H787        H  0.11437700  0.60121247  0.23522822     0.19500
H788        H  0.21720155  0.57285451  0.32468622     0.15400
C789        C  0.09975537  0.67471260  0.91006600     0.30800
C790        C  0.13342298  0.71060010  0.90319084    -0.35500
C791        C  0.13002558  0.72526991  0.88256684     0.16800
C792        C  0.09587297  0.70630022  0.86963059     0.22600
C793        C  0.06233491  0.67032952  0.87644703    -0.33600
C794        C  0.06584939  0.65545429  0.89695616     0.16700
O795        O  0.09642326  0.65497672  0.92854266    -0.25600
C796        C  0.06009352  0.62261981  0.92697609     0.06500
C797        C  0.03977361  0.62131919  0.90775477    -0.30500
O798        O  0.09865746  0.72650116  0.85143956    -0.22400
C799        C  0.13518950  0.75857114  0.85276038    -0.02400
C800        C  0.15605340  0.75932146  0.87168629    -0.16800
H801        H  0.16029798  0.72600814  0.91319046     0.21200
H802        H  0.03537150  0.65507023  0.86650698     0.19600
H803        H  0.01032291  0.59809453  0.90237956     0.19500
H804        H  0.18551228  0.78255961  0.87704822     0.15400
C805        C  0.34606830  0.91604058  0.89979536     0.30800
C806        C  0.33677972  0.90158634  0.87806941    -0.35500
C807        C  0.29915285  0.89361791  0.87028507     0.16800
C808        C  0.27278684  0.89961021  0.88307836     0.22600
C809        C  0.28178039  0.91341996  0.90490745    -0.33600
C810        C  0.31930589  0.92122534  0.91274654     0.16700
O811        O  0.38010373  0.92684605  0.91002650    -0.25600
C812        C  0.37502037  0.93861268  0.92986416     0.06500
C813        C  0.33762426  0.93560342  0.93264521    -0.30500
O814        O  0.23915264  0.88980846  0.87270698    -0.22400
C815        C  0.24379664  0.87758871  0.85293081    -0.02400
C816        C  0.28050292  0.87873829  0.85054060    -0.16800
H817        H  0.35756171  0.89715949  0.86792933     0.21200
H818        H  0.26094778  0.91780094  0.91503077     0.19600
H819        H  0.32633656  0.94420892  0.94680608     0.19500
H820        H  0.29111612  0.86837695  0.83683445     0.15400
C821        C  0.08547582  0.87829167  0.87225336     0.30800
C822        C  0.05110317  0.87843799  0.88004844    -0.35500
C823        C  0.05512261  0.89680709  0.90064902     0.16800
C824        C  0.09013814  0.91307770  0.91294086     0.22600
C825        C  0.12442846  0.91317030  0.90505900    -0.33600
C826        C  0.12068719  0.89576514  0.88430525     0.16700
O827        O  0.08875367  0.86226042  0.85362993    -0.25600
C828        C  0.12691015  0.87071970  0.85361821     0.06500
C829        C  0.14798411  0.89156140  0.87227690    -0.30500
O830        O  0.08784932  0.93029817  0.93127282    -0.22400
C831        C  0.05103360  0.92527566  0.93059262    -0.02400
C832        C  0.02933229  0.90479507  0.91194801    -0.16800
H833        H  0.02348505  0.86576060  0.87061085     0.21200
H834        H  0.15235484  0.92665094  0.91424294     0.19600
H835        H  0.17870599  0.90098251  0.87677640     0.19500
H836        H  0.99962098  0.89854375  0.90697540     0.15400
C837        C  0.36101861  0.91825684  0.76403105     0.30800
C838        C  0.32122384  0.88612063  0.76386778    -0.35500
C839        C  0.29513999  0.88802716  0.77946083     0.16800
C840        C  0.30758714  0.91923222  0.79436180     0.22600
C841        C  0.34748576  0.95129147  0.79460944    -0.33600
C842        C  0.37353710  0.94953782  0.77889352     0.16700
O843        O  0.38938682  0.92392071  0.74981612    -0.25600
C844        C  0.42055028  0.95932478  0.75551239     0.06500
C845        C  0.41269392  0.97644837  0.77373968    -0.30500
O846        O  0.27862915  0.91417231  0.80802729    -0.22400
C847        C  0.24718636  0.87933036  0.80181581    -0.02400
C848        C  0.25553292  0.86191634  0.78392682    -0.16800
H849        H  0.31115671  0.86166572  0.75213055     0.21200
H850        H  0.35741793  0.97601853  0.80615323     0.19600
H851        H  0.43197914  0.00568878  0.78103493     0.19500
H852        H  0.23598730  0.83311152  0.77625189     0.15400
C853        C  0.08772000  0.89939765  0.79600658     0.30800
C854        C  0.06027195  0.91362576  0.79764644    -0.35500
C855        C  0.05715619  0.93387864  0.77902814     0.16800
C856        C  0.07965982  0.93971793  0.76017777     0.22600
C857        C  0.10708731  0.92545678  0.75854157    -0.33600
C858        C  0.11006075  0.90504358  0.77712443     0.16700
O859        O  0.09565999  0.88017892  0.81151554    -0.25600
C860        C  0.12341148  0.87313455  0.80264276     0.06500
C861        C  0.13338409  0.88782271  0.78110458    -0.30500
O862        O  0.07109027  0.95816160  0.74448457    -0.22400
C863        C  0.04235667  0.96399944  0.75313191    -0.02400
C864        C  0.03285043  0.94990130  0.77479363    -0.16800
H865        H  0.04243845  0.90900974  0.81239432     0.21200
H866        H  0.12456989  0.92964126  0.74369992     0.19600
H867        H  0.15541828  0.88706928  0.77020583     0.19500
H868        H  0.00051656  0.43567607  0.78394037     0.15400
C869        C  0.09689524  0.70927814  0.77968608     0.30800
C870        C  0.06913741  0.68607748  0.76326833    -0.35500
C871        C  0.05899755  0.64540759  0.76220990     0.16800
C872        C  0.07548320  0.62869993  0.77600406     0.22600
C873        C  0.10342864  0.65197288  0.79232540    -0.33600
C874        C  0.11320089  0.69250904  0.79356568     0.16700
O875        O  0.10863444  0.74719925  0.78464213    -0.25600
C876        C  0.13251112  0.75469234  0.80207000     0.06500
C877        C  0.13698447  0.72190983  0.80801712    -0.30500
O878        O  0.06278427  0.59039097  0.77149510    -0.22400
C879        C  0.03787452  0.58246024  0.75451627    -0.02400
C880        C  0.03376717  0.61543754  0.74843315    -0.16800
H881        H  0.05588286  0.69865950  0.75231028     0.21200
H882        H  0.11639811  0.63929871  0.80341971     0.19600
H883        H  0.15407862  0.71950802  0.82158044     0.19500
H884        H  0.51490570  0.61660793  0.73613542     0.15400
C885        C  0.08457662  0.67572643  0.54731222     0.30800
C886        C  0.09149180  0.71429708  0.55232618    -0.35500
C887        C  0.10182292  0.72651154  0.57427719     0.16800
C888        C  0.10583689  0.70295637  0.59024482     0.22600
C889        C  0.09859944  0.66416094  0.58528215    -0.33600
C890        C  0.08780149  0.65170842  0.56333945     0.16700
O891        O  0.07264238  0.65744293  0.52808225    -0.25600
C892        C  0.06800419  0.62119586  0.53191024     0.06500
C893        C  0.07712105  0.61599376  0.55350768    -0.30500
O894        O  0.11784019  0.72158672  0.60942530    -0.22400
C895        C  0.12105476  0.75735699  0.60566957    -0.02400
C896        C  0.11087587  0.76164124  0.58413757    -0.16800
H897        H  0.08870326  0.73335070  0.54002548     0.21200
H898        H  0.10111361  0.64502073  0.59763173     0.19600
H899        H  0.07451897  0.58912754  0.56108612     0.19500
H900        H  0.11120014  0.78738831  0.57647920     0.15400
C901        C  0.32355252  0.90389670  0.54905280     0.30800
C902        C  0.28578059  0.87155981  0.55467650    -0.35500
C903        C  0.27269825  0.87201585  0.57622658     0.16800
C904        C  0.29488962  0.90217744  0.59122824     0.22600
C905        C  0.33293717  0.93411796  0.58574042    -0.33600
C906        C  0.34608786  0.93363660  0.56421002     0.16700
O907        O  0.34202204  0.90953742  0.52987458    -0.30400
C908        C  0.37683115  0.94324483  0.53293106     0.06500
C909        C  0.38094491  0.95948097  0.55394194    -0.30500
O910        O  0.27539446  0.89799934  0.60987908    -0.22400
C911        C  0.24049330  0.86447515  0.60678026    -0.02400
C912        C  0.23739573  0.84687988  0.58625157    -0.16800
H913        H  0.26768549  0.84799513  0.54303087     0.21200
H914        H  0.35073262  0.95798633  0.59729277     0.19600
H915        H  0.40648068  0.98594475  0.56082138     0.19500
H916        H  0.21202796  0.82032892  0.57931713     0.15400
C917        C  0.06446535  0.91530352  0.56238240     0.30800
C918        C  0.06097960  0.90196424  0.58428905    -0.35500
C919        C  0.09116252  0.89419398  0.59150340     0.16800
C920        C  0.12258008  0.89953773  0.57807517     0.22600
C921        C  0.12578554  0.91235717  0.55612467    -0.33600
C922        C  0.09543862  0.91969419  0.54883517     0.16700
O923        O  0.04049881  0.92567391  0.55245583    -0.25600
C924        C  0.05595077  0.93615135  0.53224418     0.06500
C925        C  0.09004386  0.93286823  0.52893312    -0.30500
O926        O  0.14678331  0.88947189  0.58789171    -0.22400
C927        C  0.13097756  0.87755838  0.60792217    -0.02400
C928        C  0.09592774  0.87942933  0.61106984    -0.16800
H929        H  0.03649548  0.89794986  0.59492494     0.21200
H930        H  0.15011060  0.91606826  0.54545059     0.19600
H931        H  0.10905610  0.94088438  0.51441068     0.19500
H932        H  0.07557989  0.86917354  0.62504866     0.15400
C933        C  0.04955345  0.62670007  0.68412796     0.30800
C934        C  0.04346732  0.65138407  0.66927582    -0.35500
C935        C  0.07601157  0.69055281  0.66639076     0.16800
C936        C  0.11202076  0.70472073  0.67748755     0.22600
C937        C  0.11812597  0.68004282  0.69235068    -0.33600
C938        C  0.08573283  0.64070587  0.69502828     0.16700
O939        O  0.02259180  0.58965748  0.69006643    -0.25600
C940        C  0.04176174  0.57981608  0.70497095     0.06500
C941        C  0.08134758  0.61020054  0.70844305    -0.30500
O942        O  0.13871345  0.74200626  0.67180950    -0.22400
C943        C  0.11966108  0.75164921  0.65670883    -0.02400
C944        C  0.08044783  0.72093909  0.65284768    -0.16800
H945        H  0.01529167  0.64081614  0.66059726     0.21200
H946        H  0.14620165  0.69070160  0.70115047     0.19600
H947        H  0.10279945  0.61059452  0.72022539     0.19500
H948        H  0.05886385  0.72067149  0.64120886     0.15400
C949        C  0.37102649  0.92321646  0.68418984     0.30800
C950        C  0.34738550  0.89440943  0.66820972    -0.35500
C951        C  0.30728856  0.88599577  0.66622380     0.16800
C952        C  0.29149147  0.90467016  0.67898561     0.22600
C953        C  0.31514582  0.93351483  0.69487022    -0.33600
C954        C  0.35513510  0.94190924  0.69685820     0.16700
O955        O  0.40880142  0.93472381  0.68947758    -0.25600
C956        C  0.41703829  0.96092355  0.70587529     0.06500
C957        C  0.38490565  0.96698746  0.71082451    -0.30500
O958        O  0.25370650  0.89325154  0.67389153    -0.22400
C959        C  0.24505791  0.86698211  0.65752566    -0.02400
C960        C  0.27721435  0.86097630  0.65229961    -0.16800
H961        H  0.35933890  0.87948279  0.65808527     0.21200
H962        H  0.30320896  0.94845467  0.70499245     0.19600
H963        H  0.38328633  0.98606647  0.72349796     0.19500
H964        H  0.27867551  0.84198976  0.63951411     0.15400
C965        C  0.10996948  0.91813275  0.66672541     0.30800
C966        C  0.10489756  0.95204315  0.66738461    -0.35500
C967        C  0.07498185  0.94959778  0.68174279     0.16800
C968        C  0.05161910  0.91601454  0.69455682     0.22600
C969        C  0.05641945  0.88190488  0.69373357    -0.33600
C970        C  0.08658417  0.88447911  0.67947786     0.16700
O971        O  0.13540050  0.91363360  0.65399887    -0.25600
C972        C  0.12854026  0.87672504  0.65872215     0.06500
C973        C  0.09863819  0.85720606  0.67458660    -0.30500
O974        O  0.02741248  0.92128823  0.70792405    -0.22400
C975        C  0.03530336  0.95868433  0.70357664    -0.02400
C976        C  0.06427304  0.97758894  0.68723304    -0.16800
H977        H  0.12325626  0.97862339  0.65751590     0.21200
H978        H  0.03839045  0.85551228  0.70379892     0.19600
H979        H  0.08602643  0.82660412  0.68058947     0.19500
H980        H  0.07425427  0.50686166  0.68115871     0.15400
C981        C  0.66685116  0.33329313  0.65563023     0.46500
H982        H  0.66643978  0.33182152  0.67397081    -0.02500
C983        C  0.66768230  0.33655781  0.61279839     0.46600
H984        H  0.66836366  0.33864159  0.59451789    -0.02500
C985        C  0.64970557  0.35937939  0.64605535    -0.16200
C986        C  0.70969289  0.35124568  0.64542353    -0.16000
C987        C  0.64168725  0.29156673  0.64426483    -0.16300
C988        C  0.65083300  0.36100537  0.62342097    -0.16300
C989        C  0.70922137  0.35172463  0.62274887    -0.15900
C990        C  0.64213019  0.29392153  0.62159562    -0.16200
C991        C  0.66646389  0.33378699  0.80552469     0.46500
H992        H  0.66627940  0.33474746  0.78718540    -0.02500
C993        C  0.66707936  0.33127419  0.84834151     0.46600
H994        H  0.66720786  0.32933825  0.86663522    -0.02500
C995        C  0.70934544  0.35668568  0.81569845    -0.16200
C996        C  0.64277706  0.35232945  0.81689409    -0.16000
C997        C  0.64807215  0.29059504  0.81508384    -0.16300
C998        C  0.70872627  0.35539282  0.83838056    -0.16300
C999        C  0.64349948  0.35063367  0.83966560    -0.15900
C1000       C  0.64880602  0.29006216  0.83771488    -0.16200
C1001       C  0.50009989  0.00258222  0.75079507     0.46500
H1002       H  0.00176435  0.00435719  0.76860419    -0.02500
C1003       C  0.49696155  0.99979888  0.70763056     0.46600
H1004       H  0.49576157  0.99870467  0.68928200    -0.02500
C1005       C  0.52287642  0.48103109  0.74257263    -0.16200
C1006       C  0.95789396  0.47949536  0.74253668    -0.16000
C1007       C  0.51993793  0.04447208  0.73971319    -0.16300
C1008       C  0.52213784  0.48015868  0.71983937    -0.16300
C1009       C  0.95743748  0.47927202  0.71979683    -0.15900
C1010       C  0.51868191  0.04283615  0.71698774    -0.16200
C1011       C  0.83215987  0.16664385  0.30489944     0.46500
H1012       H  0.83109831  0.16582701  0.28656094    -0.02500
C1013       C  0.83460405  0.16867236  0.34796206     0.46600
H1014       H  0.83571726  0.16971292  0.36634037    -0.02500
C1015       C  0.79012871  0.14780987  0.31602294    -0.16200
C1016       C  0.85224676  0.14374187  0.31532851    -0.16000
C1017       C  0.85600403  0.20954038  0.31458864    -0.16300
C1018       C  0.79216384  0.14913206  0.33868828    -0.16300
C1019       C  0.85284696  0.14507978  0.33798064    -0.15900
C1020       C  0.85709126  0.21005428  0.33718085    -0.16200
C1021       C  0.83637889  0.17009320  0.11197415     0.46500
H1022       H  0.83758028  0.17201313  0.09360696    -0.02500
C1023       C  0.83353259  0.16510161  0.15496065     0.46600
H1024       H  0.83247111  0.16321846  0.17326912    -0.02500
C1025       C  0.79370706  0.14698113  0.12123297    -0.16200
C1026       C  0.85839046  0.14964556  0.12145677    -0.16000
C1027       C  0.85533666  0.21068971  0.12312294    -0.16300
C1028       C  0.79147744  0.14372640  0.14384327    -0.16300
C1029       C  0.85675408  0.14606896  0.14403583    -0.15900
C1030       C  0.85422092  0.20908025  0.14582380    -0.16200
C1031       C  0.50079915  0.99912443  0.20863524     0.46500
H1032       H  0.50073426  0.99767021  0.19033092    -0.02500
C1033       C  0.50129928  0.00284909  0.25171170     0.46600
H1034       H  0.50169369  0.00441034  0.27004467    -0.02500
C1035       C  0.97887871  0.02009261  0.21806812    -0.16200
C1036       C  0.97883541  0.45594454  0.22104853    -0.16000
C1037       C  0.54348692  0.02203020  0.21862503    -0.16300
C1038       C  0.97921075  0.02230265  0.24080812    -0.16300
C1039       C  0.97947237  0.45846139  0.24372254    -0.15900
C1040       C  0.54356489  0.02454853  0.24131722    -0.16200
Zn1041     Zn  0.53325195  0.05710114  0.98858913     1.49700
Zn1042     Zn  0.94445752  0.47632398  0.99111924     1.49400
Zn1043     Zn  0.49760385  0.99513517  0.94886734     1.49100
Zn1044     Zn  0.52681956  0.47293862  0.99018323     1.49500
O1045       O  0.50076827  0.99994141  0.98040516    -1.83100
O1046       O  0.99996346  0.07359268  0.00751499    -0.73700
O1047       O  0.90185294  0.45690272  0.96677919    -0.73500
O1048       O  0.52479769  0.04794993  0.93434956    -0.73000
O1049       O  0.94166587  0.01604445  0.01080698    -0.73700
O1050       O  0.55261046  0.09267893  0.96143780    -0.73300
O1051       O  0.94164557  0.47116253  0.93756552    -0.73900
O1052       O  0.54399767  0.45035725  0.96492444    -0.73300
O1053       O  0.93306243  0.42894912  0.01054453    -0.74100
O1054       O  0.52029305  0.46803209  0.93610212    -0.73400
O1055       O  0.99014702  0.42687788  0.00993726    -0.73900
O1056       O  0.57479608  0.00628875  0.00996127    -0.73800
O1057       O  0.58189313  0.06736452  0.00651524    -0.73600
C1058       C  0.96476366  0.05289186  0.01571430     0.78200
C1059       C  0.90694942  0.45619286  0.94602654     0.78700
C1060       C  0.54570078  0.08389694  0.94103384     0.77600
C1061       C  0.53775858  0.45028934  0.94427856     0.78000
C1062       C  0.95426951  0.41354073  0.01673826     0.79100
C1063       C  0.59310274  0.04369156  0.01441985     0.78200
Zn1064     Zn  0.53044096  0.47382094  0.46965368     1.49700
Zn1065     Zn  0.94404015  0.46926588  0.47040884     1.49400
Zn1066     Zn  0.49899517  0.00113609  0.51181911     1.49100
Zn1067     Zn  0.52491414  0.05634800  0.46995639     1.49500
O1068       O  0.49902010  0.00042367  0.48017339    -1.83100
O1069       O  0.99512938  0.42612021  0.44969828    -0.73700
O1070       O  0.90478424  0.44834150  0.49645763    -0.73500
O1071       O  0.52077237  0.46547918  0.52359829    -0.73000
O1072       O  0.93573740  0.42352611  0.45108914    -0.73700
O1073       O  0.55151623  0.45498810  0.49539495    -0.73300
O1074       O  0.94705372  0.47875643  0.52415838    -0.73900
O1075       O  0.54658391  0.09677096  0.49551058    -0.73300
O1076       O  0.92932992  0.00535224  0.45183741    -0.74100
O1077       O  0.53372318  0.05525373  0.52388711    -0.73400
O1078       O  0.98528865  0.06536714  0.45218846    -0.73900
O1079       O  0.57102435  0.06758214  0.44947043    -0.73800
O1080       O  0.57729048  0.01291794  0.45234396    -0.73600
C1081       C  0.95844127  0.41062726  0.44383363     0.78200
C1082       C  0.91166131  0.45728465  0.51686803     0.78700
C1083       C  0.54284389  0.45246821  0.51589755     0.77600
C1084       C  0.54905248  0.09055004  0.51601770     0.78000
C1085       C  0.94941641  0.04203612  0.44571265     0.79100
C1086       C  0.58870286  0.04790556  0.44455721     0.78200
C1087       C  0.67363574  0.09986583  0.05004112     0.30800
C1088       C  0.70488453  0.13469162  0.05961676    -0.35500
C1089       C  0.72279109  0.12861715  0.07829734     0.16800
C1090       C  0.71049895  0.09097743  0.08721774     0.22600
C1091       C  0.67938927  0.05611150  0.07755756    -0.33600
C1092       C  0.66198702  0.06213501  0.05860778     0.16700
O1093       O  0.65191309  0.09853506  0.03283691    -0.25600
C1094       C  0.62649577  0.05938399  0.03016758     0.06500
C1095       C  0.63161011  0.03531835  0.04558968    -0.30500
O1096       O  0.73252518  0.09233554  0.10428381    -0.22400
C1097       C  0.75922927  0.13131905  0.10614131    -0.02400
C1098       C  0.75474016  0.15524453  0.09043696    -0.16800
H1099       H  0.71476479  0.16440197  0.05287945     0.21200
H1100       H  0.66981005  0.02637067  0.08415637     0.19600
H1101       H  0.61408222  0.00293540  0.04757788     0.19500
H1102       H  0.77331725  0.18740461  0.08790528     0.15400
C1103       C  0.87580066  0.28724595  0.08518995     0.30800
C1104       C  0.86607264  0.30889828  0.07009816    -0.35500
C1105       C  0.89737575  0.33567209  0.05626970     0.16800
C1106       C  0.93559451  0.34061722  0.05709316     0.22600
C1107       C  0.94533785  0.31883817  0.07216423    -0.33600
C1108       C  0.91406603  0.29229429  0.08616574     0.16700
O1109       O  0.85066058  0.25948464  0.09901095    -0.25600
C1110       C  0.87323869  0.24712006  0.10927279     0.06500
C1111       C  0.91285873  0.26614860  0.10187954    -0.30500
O1112       O  0.96035532  0.36782481  0.04286469    -0.22400
C1113       C  0.93767823  0.38047072  0.03286313    -0.02400
C1114       C  0.89820587  0.36147182  0.04050631    -0.16800
H1115       H  0.83613953  0.30503774  0.06916667     0.21200
H1116       H  0.97516162  0.32238566  0.07293593     0.19600
H1117       H  0.93652630  0.25994536  0.10654705     0.19500
H1118       H  0.87398025  0.36661036  0.03552589     0.15400
C1119       C  0.91657665  0.07280634  0.05856519     0.30800
C1120       C  0.88932939  0.06249179  0.07606027    -0.35500
C1121       C  0.88935034  0.09463865  0.08691021     0.16800
C1122       C  0.91394485  0.13431802  0.08071629     0.22600
C1123       C  0.94176393  0.14476622  0.06333307    -0.33600
C1124       C  0.94225079  0.11244766  0.05268151     0.16700
O1125       O  0.92101751  0.04723745  0.04612388    -0.25600
C1126       C  0.95021901  0.07056668  0.03218907     0.06500
C1127       C  0.96496240  0.11154856  0.03551975    -0.30500
O1128       O  0.90706136  0.15922343  0.09245938    -0.22400
C1129       C  0.87850336  0.13506160  0.10657622    -0.02400
C1130       C  0.86622389  0.09464520  0.10389177    -0.16800
H1131       H  0.86929329  0.03147259  0.08078702     0.21200
H1132       H  0.96132472  0.17575651  0.05837342     0.19600
H1133       H  0.98849826  0.13673787  0.02650860     0.19500
H1134       H  0.84257813  0.06904377  0.11259424     0.15400
C1135       C  0.89661032  0.30767522  0.16628252     0.30800
C1136       C  0.91240931  0.34935151  0.16428509    -0.35500
C1137       C  0.93076193  0.37210553  0.18316897     0.16800
C1138       C  0.93340328  0.35498378  0.20269079     0.22600
C1139       C  0.91727712  0.31304061  0.20476836    -0.33600
C1140       C  0.89879774  0.29014622  0.18577688     0.16700
O1141       O  0.87977682  0.28140662  0.15032110    -0.25600
C1142       C  0.87092745  0.24625747  0.15939107     0.06500
C1143       C  0.88167521  0.24969222  0.18163072    -0.30500
O1144       O  0.95152521  0.38208085  0.21828061    -0.22400
C1145       C  0.96015284  0.41699799  0.20877836    -0.02400
C1146       C  0.94820299  0.41249799  0.18678069    -0.16800
H1147       H  0.91076466  0.36309877  0.14895520     0.21200
H1148       H  0.91917026  0.29933497  0.22005917     0.19600
H1149       H  0.87892916  0.22630734  0.19278762     0.19500
H1150       H  0.95069629  0.43529984  0.17526296     0.15400
C1151       C  0.91358432  0.10244347  0.16276005     0.30800
C1152       C  0.94457731  0.09285300  0.16199761    -0.35500
C1153       C  0.94428870  0.06742026  0.17884732     0.16800
C1154       C  0.91514392  0.05215793  0.19510040     0.22600
C1155       C  0.88409846  0.06163357  0.19581261    -0.33600
C1156       C  0.88476236  0.08755695  0.17918025     0.16700
O1157       O  0.90823040  0.12573977  0.14872977    -0.25600
C1158       C  0.87567913  0.12607800  0.15626399     0.06500
C1159       C  0.85997077  0.10307437  0.17532621    -0.30500
O1160       O  0.92217796  0.03150331  0.21012714    -0.22400
C1161       C  0.95667549  0.03406323  0.20376261    -0.02400
C1162       C  0.97142917  0.05534446  0.18408850    -0.16800
H1163       H  0.96777584  0.10510081  0.14943032     0.21200
H1164       H  0.86170802  0.05051662  0.20882106     0.19600
H1165       H  0.83340249  0.09743518  0.18449747     0.19500
H1166       H  0.49754725  0.06163902  0.17524102     0.15400
C1167       C  0.64145148  0.05740911  0.19766613     0.30800
C1168       C  0.68245774  0.06895763  0.19901376    -0.35500
C1169       C  0.70644468  0.09040717  0.18084315     0.16800
C1170       C  0.69093627  0.09939346  0.16253807     0.22600
C1171       C  0.64990220  0.08778843  0.16117710    -0.33600
C1172       C  0.62597242  0.06664599  0.17943685     0.16700
O1173       O  0.61428412  0.03922361  0.21328139    -0.25600
C1174       C  0.58092549  0.03714200  0.20520156     0.06500
C1175       C  0.58626766  0.05318291  0.18398198    -0.30500
O1176       O  0.71861989  0.11949478  0.14742016    -0.22400
C1177       C  0.75250408  0.12366273  0.15606196    -0.02400
C1178       C  0.74674242  0.10633739  0.17697195    -0.16800
H1179       H  0.69490650  0.06234723  0.21342475     0.21200
H1180       H  0.63763854  0.09524552  0.14699531     0.19600
H1181       H  0.56470343  0.05637868  0.17389107     0.19500
H1182       H  0.76875498  0.10492518  0.18756202     0.15400
C1183       C  0.65731113  0.09751668  0.40175092     0.30800
C1184       C  0.67311457  0.12240954  0.38308042    -0.35500
C1185       C  0.70597085  0.12233028  0.37289034     0.16800
C1186       C  0.72235853  0.09971395  0.38074785     0.22600
C1187       C  0.70628870  0.07450136  0.39918975    -0.33600
C1188       C  0.67324721  0.07426577  0.40920922     0.16700
O1189       O  0.62628769  0.09242363  0.41367219    -0.25600
C1190       C  0.62219223  0.06530884  0.42878240     0.06500
C1191       C  0.65051893  0.05288170  0.42678856    -0.30500
O1192       O  0.75415083  0.10563044  0.36944191    -0.22400
C1193       C  0.75777171  0.13178482  0.35391379    -0.02400
C1194       C  0.72869633  0.14333873  0.35513987    -0.16800
H1195       H  0.66072410  0.14055122  0.37696826     0.21200
H1196       H  0.71879823  0.05648699  0.40534431     0.19600
H1197       H  0.65346679  0.03084872  0.43664149     0.19500
H1198       H  0.72577653  0.16504861  0.34497719     0.15400
C1199       C  0.93817818  0.33565160  0.40466815     0.30800
C1200       C  0.94552072  0.30955192  0.39176604    -0.35500
C1201       C  0.91641601  0.28745325  0.37572529     0.16800
C1202       C  0.88245585  0.29077348  0.37258686     0.22600
C1203       C  0.87503266  0.31666633  0.38554063    -0.33600
C1204       C  0.90399820  0.33858896  0.40161442     0.16700
O1205       O  0.96170791  0.35989128  0.42031086    -0.25600
C1206       C  0.94201489  0.37818425  0.42744630     0.06500
C1207       C  0.90589543  0.36597310  0.41647350    -0.30500
O1208       O  0.85816123  0.26568334  0.35752797    -0.22400
C1209       C  0.87701976  0.24638072  0.35083135    -0.02400
C1210       C  0.91323458  0.25844287  0.36159093    -0.16800
H1211       H  0.97187034  0.30648419  0.39415813     0.21200
H1212       H  0.84828902  0.31915404  0.38343073     0.19600
H1213       H  0.88479124  0.37675364  0.41864511     0.19500
H1214       H  0.93312792  0.24611874  0.36002344     0.15400
C1215       C  0.92938543  0.09633100  0.40634215     0.30800
C1216       C  0.93870113  0.12909955  0.39241924    -0.35500
C1217       C  0.90893258  0.12358411  0.37719978     0.16800
C1218       C  0.87236365  0.08835175  0.37585875     0.22600
C1219       C  0.86301158  0.05554363  0.38982160    -0.33600
C1220       C  0.89291871  0.06099836  0.40500182     0.16700
O1221       O  0.95331762  0.09463208  0.42133842    -0.25600
C1222       C  0.93196116  0.05780689  0.42977879     0.06500
C1223       C  0.89407292  0.03542886  0.42028223    -0.30500
O1224       O  0.84838816  0.09046482  0.36099927    -0.22400
C1225       C  0.87023320  0.12721553  0.35255833    -0.02400
C1226       C  0.90796146  0.14933313  0.36206608    -0.16800
H1227       H  0.96719162  0.15691143  0.39337124     0.21200
H1228       H  0.83443231  0.02781648  0.38894780     0.19600
H1229       H  0.87134608  0.00453128  0.42365067     0.19500
H1230       H  0.93057141  0.18033066  0.35890746     0.15400
C1231       C  0.95046821  0.37296041  0.27646254     0.30800
C1232       C  0.95642365  0.34491690  0.28841645    -0.35500
C1233       C  0.92223265  0.30697124  0.29163167     0.16800
C1234       C  0.88470523  0.29708288  0.28357976     0.22600
C1235       C  0.87869965  0.32522078  0.27174084    -0.33600
C1236       C  0.91280873  0.36332224  0.26873048     0.16700
O1237       O  0.97873238  0.40912970  0.27009096    -0.25600
C1238       C  0.95882990  0.42289119  0.25827542     0.06500
C1239       C  0.91765894  0.39595954  0.25717419    -0.30500
O1240       O  0.85666429  0.26036755  0.28932173    -0.22400
C1241       C  0.87655075  0.24668598  0.30122912    -0.02400
C1242       C  0.91740254  0.27430363  0.30312668    -0.16800
H1243       H  0.98574008  0.35206071  0.29462451     0.21200
H1244       H  0.84946674  0.31794365  0.26533761     0.19600
H1245       H  0.89532713  0.39869704  0.24753188     0.19500
H1246       H  0.93978577  0.27140236  0.31262166     0.15400
C1247       C  0.93807343  0.08074306  0.26077841     0.30800
C1248       C  0.92481615  0.10893818  0.25929515    -0.35500
C1249       C  0.90327104  0.11095556  0.27754055     0.16800
C1250       C  0.89579002  0.08717411  0.29606148     0.22600
C1251       C  0.90886313  0.05880822  0.29749892    -0.33600
C1252       C  0.93004265  0.05650404  0.27914475     0.16700
O1253       O  0.95748138  0.07296809  0.24533650    -0.25600
C1254       C  0.96133598  0.04277238  0.25361461     0.06500
C1255       C  0.94532125  0.03169861  0.27480712    -0.30500
O1256       O  0.87618208  0.09486114  0.31142931    -0.22400
C1257       C  0.87065628  0.12374625  0.30266011    -0.02400
C1258       C  0.88671373  0.13478561  0.28149779    -0.16800
H1259       H  0.93058592  0.12772181  0.24481443     0.21200
H1260       H  0.90277795  0.03975047  0.31189246     0.19600
H1261       H  0.94367523  0.00778755  0.28513635     0.19500
H1262       H  0.88746691  0.15800806  0.27092971     0.15400
C1263       C  0.62527116  0.05920580  0.27809790     0.30800
C1264       C  0.64840732  0.05545597  0.29489639    -0.35500
C1265       C  0.68855772  0.08657357  0.29629224     0.16800
C1266       C  0.70502166  0.11952625  0.28234487     0.22600
C1267       C  0.68166056  0.12363076  0.26572398    -0.33600
C1268       C  0.64145954  0.09230595  0.26423389     0.16700
O1269       O  0.58816094  0.03190640  0.27260512    -0.25600
C1270       C  0.58050577  0.04749459  0.25483961     0.06500
C1271       C  0.61222568  0.08554954  0.24928261    -0.30500
O1272       O  0.74339042  0.14491790  0.28671769    -0.22400
C1273       C  0.75139835  0.12799474  0.30379202    -0.02400
C1274       C  0.71845076  0.09143852  0.31018064    -0.16800
H1275       H  0.63627210  0.02950547  0.30575775     0.21200
H1276       H  0.69414230  0.14899631  0.25444513     0.19600
H1277       H  0.61430714  0.10432671  0.23536755     0.19500
H1278       H  0.71659815  0.07152560  0.32342415     0.15400
C1279       C  0.60166506  0.16704015  0.90721213     0.30800
C1280       C  0.63488876  0.20342395  0.90065296    -0.35500
C1281       C  0.63091554  0.21898427  0.88049978     0.16800
C1282       C  0.59670131  0.20024101  0.86759785     0.22600
C1283       C  0.56371068  0.16338346  0.87395487    -0.33600
C1284       C  0.56773329  0.14772239  0.89411567     0.16700
O1285       O  0.59827241  0.14774461  0.92582348    -0.25600
C1286       C  0.56190256  0.11554633  0.92442372     0.06500
C1287       C  0.54161397  0.11371528  0.90506635    -0.30500
O1288       O  0.59868339  0.22180853  0.85014245    -0.22400
C1289       C  0.63474612  0.25447114  0.85195515    -0.02400
C1290       C  0.65609160  0.25424484  0.87042102    -0.16800
H1291       H  0.66157578  0.21898166  0.91078247     0.21200
H1292       H  0.53653925  0.14845235  0.86415578     0.19600
H1293       H  0.51180688  0.09079892  0.89998124     0.19500
H1294       H  0.68529848  0.27756981  0.87605759     0.15400
C1295       C  0.84372461  0.41248905  0.90113243     0.30800
C1296       C  0.83437738  0.39699231  0.87965876    -0.35500
C1297       C  0.79719999  0.38957092  0.87157262     0.16800
C1298       C  0.77123697  0.39701774  0.88383899     0.22600
C1299       C  0.78016397  0.41170393  0.90550060    -0.33600
C1300       C  0.81732478  0.41898076  0.91365615     0.16700
O1301       O  0.87783442  0.42379012  0.91133064    -0.25600
C1302       C  0.87319128  0.43716191  0.93073867     0.06500
C1303       C  0.83595200  0.43462979  0.93332198    -0.30500
O1304       O  0.73809219  0.38774081  0.87312403    -0.22400
C1305       C  0.74276752  0.37435907  0.85372851    -0.02400
C1306       C  0.77883672  0.37419602  0.85188661    -0.16800
H1307       H  0.85492910  0.39166219  0.86985737     0.21200
H1308       H  0.75969456  0.41732258  0.91520308     0.19600
H1309       H  0.82519214  0.44480533  0.94705107     0.19500
H1310       H  0.78917321  0.36275562  0.83856136     0.15400
C1311       C  0.58702763  0.38077422  0.87244164     0.30800
C1312       C  0.55524854  0.38733733  0.87789170    -0.35500
C1313       C  0.55672063  0.40259727  0.89909551     0.16800
C1314       C  0.58680371  0.41004839  0.91412080     0.22600
C1315       C  0.61856418  0.40352678  0.90862862    -0.33600
C1316       C  0.61755597  0.38924095  0.88723681     0.16700
O1317       O  0.59208360  0.36699995  0.85347611    -0.25600
C1318       C  0.62679558  0.36749712  0.85592642     0.06500
C1319       C  0.64387526  0.38124920  0.87668487    -0.30500
O1320       O  0.58325236  0.42617949  0.93259249    -0.22400
C1321       C  0.55081898  0.42951768  0.92913669    -0.02400
C1322       C  0.53301271  0.41525372  0.90867033    -0.16800
H1323       H  0.53163233  0.38190299  0.86625246     0.21200
H1324       H  0.64292092  0.41020532  0.91998221     0.19600
H1325       H  0.67152457  0.38459215  0.88334427     0.19500
H1326       H  0.50727247  0.41568538  0.90158583     0.15400
C1327       C  0.86054463  0.41710605  0.76384095     0.30800
C1328       C  0.82013703  0.38609851  0.76296295    -0.35500
C1329       C  0.79462586  0.38668000  0.77947365     0.16800
C1330       C  0.80822413  0.41561361  0.79579165     0.22600
C1331       C  0.84867386  0.44631998  0.79678769    -0.33600
C1332       C  0.87409846  0.44592958  0.78021573     0.16700
O1333       O  0.88871080  0.42401995  0.74917540    -0.25600
C1334       C  0.92072554  0.45784424  0.75609123     0.06500
C1335       C  0.91359221  0.47247783  0.77558248    -0.30500
O1336       O  0.77966490  0.41004720  0.80988030    -0.22400
C1337       C  0.74720077  0.37703219  0.80266513    -0.02400
C1338       C  0.75458642  0.36138830  0.78359544    -0.16800
H1339       H  0.80922310  0.36356983  0.75005136     0.21200
H1340       H  0.85945477  0.46922333  0.80949145     0.19600
H1341       H  0.93368416  0.50006377  0.78419044     0.19500
H1342       H  0.73404076  0.33421359  0.77479841     0.15400
C1343       C  0.58642021  0.39619492  0.79747438     0.30800
C1344       C  0.55644343  0.40715216  0.79845108    -0.35500
C1345       C  0.55602371  0.43109650  0.78097917     0.16800
C1346       C  0.58329711  0.44330743  0.76378540     0.22600
C1347       C  0.61344927  0.43257812  0.76291452    -0.33600
C1348       C  0.61380282  0.40856392  0.78036526     0.16700
O1349       O  0.59229410  0.37411709  0.81206832    -0.25600
C1350       C  0.62401352  0.37237887  0.80449117     0.06500
C1351       C  0.63846115  0.39301637  0.78460133    -0.30500
O1352       O  0.57616754  0.46364163  0.74859998    -0.22400
C1353       C  0.54377368  0.46440403  0.75599116    -0.02400
C1354       C  0.53024587  0.44510838  0.77628593    -0.16800
H1355       H  0.53472159  0.39732243  0.81180103     0.21200
H1356       H  0.63473146  0.44179504  0.74937278     0.19600
H1357       H  0.66409877  0.39702817  0.77503340     0.19500
H1358       H  0.50871613  0.94760804  0.78552382     0.15400
C1359       C  0.59863509  0.20944917  0.77820917     0.30800
C1360       C  0.57105756  0.18679222  0.76160973    -0.35500
C1361       C  0.56071665  0.14610104  0.76021561     0.16800
C1362       C  0.57689232  0.12886890  0.77384401     0.22600
C1363       C  0.60486033  0.15166652  0.79027900    -0.33600
C1364       C  0.61479283  0.19223026  0.79186845     0.16700
O1365       O  0.60981482  0.24700051  0.78374352    -0.25600
C1366       C  0.63317283  0.25381592  0.80132663     0.06500
C1367       C  0.63803038  0.22102685  0.80674038    -0.30500
O1368       O  0.56347407  0.09043765  0.76925617    -0.22400
C1369       C  0.53844892  0.08297494  0.75237037    -0.02400
C1370       C  0.53501233  0.11640752  0.74644356    -0.16800
H1371       H  0.55779445  0.19969558  0.75088847     0.21200
H1372       H  0.61744962  0.13854016  0.80132511     0.19600
H1373       H  0.65477026  0.21807243  0.82031411     0.19500
H1374       H  0.01627369  0.11862960  0.73300884     0.15400
C1375       C  0.58563404  0.17868715  0.54717144     0.30800
C1376       C  0.59202236  0.21699962  0.55252439    -0.35500
C1377       C  0.60347018  0.22934109  0.57438948     0.16800
C1378       C  0.60887869  0.20606459  0.58996521     0.22600
C1379       C  0.60245056  0.16767637  0.58463097    -0.33600
C1380       C  0.59060925  0.15513502  0.56278962     0.16700
O1381       O  0.57240003  0.16009053  0.52808166    -0.25600
C1382       C  0.56868196  0.12409957  0.53160287     0.06500
C1383       C  0.57982029  0.11947297  0.55283190    -0.30500
O1384       O  0.62125452  0.22452183  0.60917415    -0.22400
C1385       C  0.62346540  0.25996225  0.60582673    -0.02400
C1386       C  0.61233606  0.26426475  0.58453633    -0.16800
H1387       H  0.58787597  0.23570146  0.54056395     0.21200
H1388       H  0.60612554  0.14879827  0.59667827     0.19600
H1389       H  0.57823932  0.09288481  0.56017603     0.19500
H1390       H  0.61202398  0.28997998  0.57726260     0.15400
C1391       C  0.82581887  0.40340888  0.54950208     0.30800
C1392       C  0.78819490  0.37119548  0.55545280    -0.35500
C1393       C  0.77561995  0.37202653  0.57708251     0.16800
C1394       C  0.79808239  0.40249214  0.59187362     0.22600
C1395       C  0.83596161  0.43444369  0.58602307    -0.33600
C1396       C  0.84867212  0.43350276  0.56441833     0.16700
O1397       O  0.84393848  0.40845266  0.53024957    -0.30400
C1398       C  0.87889447  0.44211045  0.53300808     0.06500
C1399       C  0.88342049  0.45894734  0.55389564    -0.30500
O1400       O  0.77890860  0.39861482  0.61064324    -0.22400
C1401       C  0.74391100  0.36502745  0.60778631    -0.02400
C1402       C  0.74052558  0.34705533  0.58734885    -0.16800
H1403       H  0.76986991  0.34735660  0.54399802     0.21200
H1404       H  0.85400237  0.45858276  0.59738173     0.19600
H1405       H  0.90917313  0.48550604  0.56054048     0.19500
H1406       H  0.71493350  0.32051776  0.58056256     0.15400
C1407       C  0.56802508  0.41606189  0.56231851     0.30800
C1408       C  0.56392657  0.40211591  0.58414020    -0.35500
C1409       C  0.59526562  0.39666124  0.59198097     0.16800
C1410       C  0.62839439  0.40484207  0.57924474     0.22600
C1411       C  0.63243098  0.41868616  0.55745005    -0.33600
C1412       C  0.60085925  0.42352703  0.54948828     0.16700
O1413       O  0.54272135  0.42386591  0.55176508    -0.25600
C1414       C  0.55918739  0.43577572  0.53184016     0.06500
C1415       C  0.59535600  0.43606519  0.52938324    -0.30500
O1416       O  0.65298345  0.39553963  0.58932214    -0.22400
C1417       C  0.63574632  0.38142032  0.60884389    -0.02400
C1418       C  0.59943853  0.38105581  0.61139691    -0.16800
H1419       H  0.53791978  0.39551776  0.59417188     0.21200
H1420       H  0.65803296  0.42446660  0.54727635     0.19600
H1421       H  0.61547981  0.44592730  0.51529021     0.19500
H1422       H  0.57794642  0.36855817  0.62481635     0.15400
C1423       C  0.54732089  0.12721971  0.68276398     0.30800
C1424       C  0.54164487  0.15332420  0.66872294    -0.35500
C1425       C  0.57518886  0.19201092  0.66574970     0.16800
C1426       C  0.61160339  0.20431059  0.67607866     0.22600
C1427       C  0.61726713  0.17822825  0.68999829    -0.33600
C1428       C  0.58403859  0.13950454  0.69270559     0.16700
O1429       O  0.51971270  0.09042299  0.68884408    -0.25600
C1430       C  0.53922892  0.07913235  0.70276604     0.06500
C1431       C  0.57943197  0.10827822  0.70549535    -0.30500
O1432       O  0.63916696  0.24140903  0.67069079    -0.22400
C1433       C  0.62038522  0.25302869  0.65653334    -0.02400
C1434       C  0.58044633  0.22360913  0.65290375    -0.16800
H1435       H  0.51309969  0.14420029  0.66075060     0.21200
H1436       H  0.64568823  0.18746953  0.69814172     0.19600
H1437       H  0.60125278  0.10752010  0.71655474     0.19500
H1438       H  0.55891966  0.22496878  0.64186468     0.15400
C1439       C  0.87291529  0.42245200  0.68578573     0.30800
C1440       C  0.84852687  0.39225671  0.67061801    -0.35500
C1441       C  0.80897192  0.38515404  0.66803854     0.16800
C1442       C  0.79427527  0.40612328  0.67964629     0.22600
C1443       C  0.81865061  0.43629554  0.69477365    -0.33600
C1444       C  0.85820707  0.44358431  0.69722319     0.16700
O1445       O  0.91041218  0.43328955  0.69133256    -0.25600
C1446       C  0.91973466  0.46167069  0.70657819     0.06500
C1447       C  0.88854551  0.46964579  0.71061242    -0.30500
O1448       O  0.75689075  0.39559759  0.67411102    -0.22400
C1449       C  0.74742424  0.36762338  0.65861181    -0.02400
C1450       C  0.77866253  0.35974116  0.65432154    -0.16800
H1451       H  0.85961671  0.37550432  0.66143340     0.21200
H1452       H  0.80761960  0.45314062  0.70391807     0.19600
H1453       H  0.88779123  0.49036271  0.72250961     0.19500
H1454       H  0.77942757  0.33934712  0.64220808     0.15400
C1455       C  0.61312060  0.42034319  0.66767333     0.30800
C1456       C  0.60633288  0.45324739  0.66803976    -0.35500
C1457       C  0.57796828  0.45108325  0.68351751     0.16800
C1458       C  0.55773745  0.41873307  0.69764291     0.22600
C1459       C  0.56428321  0.38570138  0.69714115    -0.33600
C1460       C  0.59280633  0.38796827  0.68175920     0.16700
O1461       O  0.63734329  0.41554113  0.65408072    -0.25600
C1462       C  0.63266362  0.37967484  0.65953951     0.06500
C1463       C  0.60556725  0.36128420  0.67681162    -0.30500
O1464       O  0.53427533  0.42391223  0.71162403    -0.22400
C1465       C  0.53944269  0.46003780  0.70641438    -0.02400
C1466       C  0.56590176  0.47815973  0.68884852    -0.16800
H1467       H  0.62219035  0.47881131  0.65708279     0.21200
H1468       H  0.54860041  0.36024767  0.70818427     0.19600
H1469       H  0.59506731  0.33161373  0.68376985     0.19500
H1470       H  0.57420498  0.00649204  0.68052239     0.15400
C1471       C  0.66385945  0.83167211  0.65516627     0.46500
H1472       H  0.66368317  0.83067917  0.67351605    -0.02500
C1473       C  0.66411879  0.83383676  0.61231148     0.46600
H1474       H  0.66474600  0.83552511  0.59402439    -0.02500
C1475       C  0.64570018  0.85669944  0.64537098    -0.16200
C1476       C  0.70660624  0.84999667  0.64481092    -0.16000
C1477       C  0.63931416  0.78962804  0.64413536    -0.16300
C1478       C  0.64664101  0.85783146  0.62272133    -0.16300
C1479       C  0.70578842  0.84993515  0.62213602    -0.15900
C1480       C  0.63929989  0.79139006  0.62143505    -0.16200
C1481       C  0.66775091  0.83587136  0.80467679     0.46500
H1482       H  0.66760856  0.83599035  0.78632977    -0.02500
C1483       C  0.66863194  0.83529814  0.84752324     0.46600
H1484       H  0.66853462  0.83452112  0.86587646    -0.02500
C1485       C  0.71064974  0.85961066  0.81489424    -0.16200
C1486       C  0.64387181  0.85466437  0.81543425    -0.16000
C1487       C  0.64950375  0.79307924  0.81488478    -0.16300
C1488       C  0.71032006  0.85910880  0.83758064    -0.16300
C1489       C  0.64471224  0.85379310  0.83815371    -0.15900
C1490       C  0.65062784  0.79361697  0.83754357    -0.16200
C1491       C  0.50116533  0.50212669  0.75268723     0.46500
H1492       H  0.00104864  0.50284485  0.77083155    -0.02500
C1493       C  0.50045955  0.50090281  0.70948114     0.46600
H1494       H  0.50019920  0.50049032  0.69111879    -0.02500
C1495       C  0.52116376  0.98093778  0.74049666    -0.16200
C1496       C  0.95736390  0.98081118  0.74095753    -0.16000
C1497       C  0.52151221  0.54440050  0.74203613    -0.16300
C1498       C  0.51899988  0.97922179  0.71778734    -0.16300
C1499       C  0.95556876  0.97967564  0.71822484    -0.15900
C1500       C  0.52173427  0.54355478  0.71931856    -0.16200
C1501       C  0.83321115  0.66726010  0.30509514     0.46500
H1502       H  0.83184080  0.66567695  0.28677263    -0.02500
C1503       C  0.83639120  0.67120344  0.34809404     0.46600
H1504       H  0.83764089  0.67301238  0.36645414    -0.02500
C1505       C  0.79130149  0.64939283  0.31634326    -0.16200
C1506       C  0.85269400  0.64401825  0.31588237    -0.16000
C1507       C  0.85801784  0.71065792  0.31424560    -0.16300
C1508       C  0.79383690  0.65194901  0.33895516    -0.16300
C1509       C  0.85384103  0.64642340  0.33855544    -0.15900
C1510       C  0.85936660  0.71212139  0.33684653    -0.16200
C1511       C  0.83389635  0.66852610  0.11260390     0.46500
H1512       H  0.83483136  0.67008646  0.09422537    -0.02500
C1513       C  0.83181270  0.66435931  0.15562706     0.46600
H1514       H  0.83089180  0.66275967  0.17394278    -0.02500
C1515       C  0.79142018  0.64589691  0.12197435    -0.16200
C1516       C  0.85569054  0.64783699  0.12216872    -0.16000
C1517       C  0.85322986  0.70937434  0.12355333    -0.16300
C1518       C  0.78955240  0.64295236  0.14458364    -0.16300
C1519       C  0.85446465  0.64461998  0.14476336    -0.15900
C1520       C  0.85283355  0.70834423  0.14627343    -0.16200
C1521       C  0.49971531  0.49795406  0.20957618     0.46500
H1522       H  0.49916992  0.49614161  0.19127650    -0.02500
C1523       C  0.50147886  0.50228699  0.25264567     0.46600
H1524       H  0.50230443  0.50405200  0.27097329    -0.02500
C1525       C  0.97785275  0.51923940  0.21890821    -0.16200
C1526       C  0.98134640  0.95749759  0.22023237    -0.16000
C1527       C  0.54264598  0.51994751  0.21930771    -0.16300
C1528       C  0.97926839  0.52196729  0.24164754    -0.16300
C1529       C  0.98127904  0.95971035  0.24292463    -0.15900
C1530       C  0.54347536  0.52288465  0.24200288    -0.16200
Zn1531     Zn  0.53170125  0.55858482  0.98916648     1.49700
Zn1532     Zn  0.94525485  0.97598460  0.99122971     1.49400
Zn1533     Zn  0.49732980  0.49969700  0.94833585     1.49100
Zn1534     Zn  0.52709187  0.97073775  0.99129357     1.49500
O1535       O  0.49996204  0.50202990  0.97994230    -1.83100
O1536       O  0.99779525  0.57252384  0.00892489    -0.73700
O1537       O  0.90293305  0.95831494  0.96657920    -0.73500
O1538       O  0.52479730  0.55392036  0.93505359    -0.73000
O1539       O  0.93882060  0.51539395  0.01041639    -0.73700
O1540       O  0.55207145  0.59670691  0.96301595    -0.73300
O1541       O  0.94296354  0.96937704  0.93783170    -0.73900
O1542       O  0.54561342  0.94781572  0.96650295    -0.73300
O1543       O  0.93213934  0.92785467  0.01056660    -0.74100
O1544       O  0.52053579  0.96323450  0.93744982    -0.73400
O1545       O  0.98948827  0.92622593  0.01123106    -0.73900
O1546       O  0.57494001  0.50783414  0.00878867    -0.73800
O1547       O  0.57957349  0.56806234  0.00748331    -0.73600
C1548       C  0.96191310  0.55177298  0.01616055     0.78200
C1549       C  0.90833884  0.95664231  0.94590703     0.78700
C1550       C  0.54549926  0.58944777  0.94246202     0.77600
C1551       C  0.53895447  0.94670575  0.94583901     0.78000
C1552       C  0.95326609  0.91278710  0.01745898     0.79100
C1553       C  0.59193222  0.54468725  0.01438231     0.78200
Zn1554     Zn  0.52914412  0.97438092  0.47022350     1.49700
Zn1555     Zn  0.94275482  0.97046083  0.47091272     1.49400
Zn1556     Zn  0.50017168  0.49900162  0.51134600     1.49100
Zn1557     Zn  0.52514020  0.55565054  0.46993112     1.49500
O1558       O  0.49996138  0.49942500  0.47973690    -1.83100
O1559       O  0.99520307  0.92921260  0.44965241    -0.73700
O1560       O  0.90348591  0.94878322  0.49693536    -0.73500
O1561       O  0.51883386  0.96697622  0.52434027    -0.73000
O1562       O  0.93517383  0.92507869  0.45120047    -0.73700
O1563       O  0.54785584  0.95431075  0.49603129    -0.73300
O1564       O  0.94503261  0.98114122  0.52464769    -0.73900
O1565       O  0.54619724  0.59478708  0.49588883    -0.73300
O1566       O  0.93114576  0.50434790  0.45115832    -0.74100
O1567       O  0.53424609  0.55257221  0.52380966    -0.73400
O1568       O  0.98654916  0.56466397  0.45212296    -0.73900
O1569       O  0.57136798  0.56813585  0.44926640    -0.73800
O1570       O  0.57719248  0.51306033  0.45104970    -0.73600
C1571       C  0.95856945  0.91322968  0.44363385     0.78200
C1572       C  0.90989620  0.95829851  0.51730029     0.78700
C1573       C  0.53952995  0.95241690  0.51652826     0.77600
C1574       C  0.54875950  0.58798610  0.51628603     0.78000
C1575       C  0.95084818  0.54125502  0.44541686     0.79100
C1576       C  0.58870399  0.54840954  0.44373934     0.78200
C1577       C  0.67049225  0.59998568  0.05125404     0.30800
C1578       C  0.70022664  0.63459879  0.06179197    -0.35500
C1579       C  0.71899332  0.62798899  0.07989305     0.16800
C1580       C  0.70881497  0.58996725  0.08742069     0.22600
C1581       C  0.67908047  0.55530425  0.07684116    -0.33600
C1582       C  0.66089359  0.56193881  0.05842345     0.16700
O1583       O  0.64856427  0.59914166  0.03427217    -0.25600
C1584       C  0.62506276  0.56004939  0.03030165     0.06500
C1585       C  0.63162239  0.53548891  0.04468310    -0.30500
O1586       O  0.73160741  0.59096725  0.10402113    -0.22400
C1587       C  0.75667017  0.63011822  0.10699179    -0.02400
C1588       C  0.75032012  0.65450735  0.09247363    -0.16800
H1589       H  0.70852288  0.66458704  0.05610022     0.21200
H1590       H  0.67122491  0.52531767  0.08231583     0.19600
H1591       H  0.61570076  0.50290634  0.04555570     0.19500
H1592       H  0.76740762  0.68697836  0.09090323     0.15400
C1593       C  0.87235230  0.78357569  0.08423002     0.30800
C1594       C  0.86239483  0.80276110  0.06765594    -0.35500
C1595       C  0.89478830  0.83272646  0.05564805     0.16800
C1596       C  0.93419503  0.84269685  0.05949864     0.22600
C1597       C  0.94418663  0.82368962  0.07618505    -0.33600
C1598       C  0.91182549  0.79410191  0.08840417     0.16700
O1599       O  0.84670647  0.75360276  0.09677291    -0.25600
C1600       C  0.87006159  0.74546280  0.10947271     0.06500
C1601       C  0.91084824  0.76945270  0.10496602    -0.30500
O1602       O  0.95968066  0.87137164  0.04620488    -0.22400
C1603       C  0.93635803  0.88011349  0.03380416    -0.02400
C1604       C  0.89567533  0.85710862  0.03896451    -0.16800
H1605       H  0.83154311  0.79469423  0.06427769     0.21200
H1606       H  0.97498723  0.83134227  0.07935462     0.19600
H1607       H  0.93576283  0.76750996  0.11206591     0.19500
H1608       H  0.87058046  0.85840847  0.03161883     0.15400
C1609       C  0.91052751  0.57067385  0.05759363     0.30800
C1610       C  0.88037526  0.56017736  0.07346940    -0.35500
C1611       C  0.88295341  0.59190890  0.08605624     0.16800
C1612       C  0.91290232  0.63143774  0.08306949     0.22600
C1613       C  0.94350995  0.64192530  0.06733969    -0.33600
C1614       C  0.94112062  0.60997886  0.05484468     0.16700
O1615       O  0.91356595  0.54561995  0.04400914    -0.25600
C1616       C  0.94664033  0.56896089  0.03246060     0.06500
C1617       C  0.96529441  0.60935558  0.03848827    -0.30500
O1618       O  0.90796406  0.65644468  0.09586320    -0.22400
C1619       C  0.87498704  0.63234352  0.10735822    -0.02400
C1620       C  0.85805803  0.59198749  0.10198962    -0.16800
H1621       H  0.85636323  0.52941977  0.07570990     0.21200
H1622       H  0.96716284  0.67277468  0.06485629     0.19600
H1623       H  0.99260355  0.63436513  0.03187659     0.19500
H1624       H  0.83055701  0.56677983  0.10827646     0.15400
C1625       C  0.89711257  0.80801765  0.16606569     0.30800
C1626       C  0.91310939  0.84979399  0.16385882    -0.35500
C1627       C  0.93254025  0.87306927  0.18248756     0.16800
C1628       C  0.93595932  0.85629680  0.20195326     0.22600
C1629       C  0.91973289  0.81432939  0.20421772    -0.33600
C1630       C  0.90020751  0.79093921  0.18550736     0.16700
O1631       O  0.87913011  0.78121986  0.15039935    -0.25600
C1632       C  0.87043955  0.74613768  0.15960036     0.06500
C1633       C  0.88251890  0.75027009  0.18164699    -0.30500
O1634       O  0.95462906  0.88366073  0.21738209    -0.22400
C1635       C  0.96294607  0.91849857  0.20787261    -0.02400
C1636       C  0.95020511  0.91362929  0.18598136    -0.16800
H1637       H  0.91071413  0.86322083  0.14858023     0.21200
H1638       H  0.92220000  0.80092944  0.21948935     0.19600
H1639       H  0.88020532  0.72713112  0.19285601     0.19500
H1640       H  0.95215328  0.93629980  0.17453357     0.15400
C1641       C  0.90885327  0.59768440  0.16287764     0.30800
C1642       C  0.93840557  0.58612485  0.16151318    -0.35500
C1643       C  0.93973785  0.56290509  0.17915744     0.16800
C1644       C  0.91326717  0.55133964  0.19669384     0.22600
C1645       C  0.88353434  0.56267402  0.19798765    -0.33600
C1646       C  0.88271514  0.58655173  0.18054827     0.16700
O1647       O  0.90293982  0.62005031  0.14843819    -0.25600
C1648       C  0.87273144  0.62368026  0.15689760     0.06500
C1649       C  0.85907266  0.60358490  0.17701161    -0.30500
O1650       O  0.92173183  0.53244073  0.21216924    -0.22400
C1651       C  0.95465925  0.53262154  0.20484633    -0.02400
C1652       C  0.96667424  0.55034207  0.18405699    -0.16800
H1653       H  0.95962360  0.59559490  0.14794504     0.21200
H1654       H  0.86340718  0.55462039  0.21201003     0.19600
H1655       H  0.83469522  0.60100713  0.18721640     0.19500
H1656       H  0.49329264  0.55642533  0.17476755     0.15400
C1657       C  0.63960914  0.55320847  0.19780188     0.30800
C1658       C  0.68067972  0.56513812  0.19915052    -0.35500
C1659       C  0.70455901  0.58709449  0.18108584     0.16800
C1660       C  0.68884356  0.59602396  0.16284795     0.22600
C1661       C  0.64772536  0.58385926  0.16142977    -0.33600
C1662       C  0.62395286  0.56241235  0.17963088     0.16700
O1663       O  0.61269695  0.53540179  0.21354728    -0.25600
C1664       C  0.57943591  0.53368607  0.20561268     0.06500
C1665       C  0.58444794  0.54936104  0.18434464    -0.30500
O1666       O  0.71653919  0.61712227  0.14796383    -0.22400
C1667       C  0.75063288  0.62205198  0.15670540    -0.02400
C1668       C  0.74501159  0.60412311  0.17741464    -0.16800
H1669       H  0.69331400  0.55881932  0.21358249     0.21200
H1670       H  0.63536867  0.59150337  0.14736138     0.19600
H1671       H  0.56296093  0.55300663  0.17443246     0.19500
H1672       H  0.76723552  0.60312453  0.18801038     0.15400
C1673       C  0.65840042  0.60009910  0.40161440     0.30800
C1674       C  0.67548526  0.62660670  0.38364298    -0.35500
C1675       C  0.70803647  0.62618200  0.37324728     0.16800
C1676       C  0.72285636  0.60167890  0.38025625     0.22600
C1677       C  0.70549177  0.57489755  0.39793196    -0.33600
C1678       C  0.67288594  0.57510051  0.40816704     0.16700
O1679       O  0.62753317  0.59505977  0.41369848    -0.25600
C1680       C  0.62218539  0.56624914  0.42796570     0.06500
C1681       C  0.64948500  0.55270941  0.42526425    -0.30500
O1682       O  0.75448315  0.60729299  0.36892333    -0.22400
C1683       C  0.75963980  0.63523496  0.35423625    -0.02400
C1684       C  0.73172278  0.64823358  0.35600334    -0.16800
H1685       H  0.66430418  0.64618425  0.37821224     0.21200
H1686       H  0.71678467  0.55543026  0.40340006     0.19600
H1687       H  0.65140907  0.52937535  0.43439961     0.19500
H1688       H  0.73000866  0.67126057  0.34643856     0.15400
C1689       C  0.94136745  0.84245845  0.40213483     0.30800
C1690       C  0.95051055  0.81945267  0.38764246    -0.35500
C1691       C  0.91965725  0.79417207  0.37310114     0.16800
C1692       C  0.88248189  0.79180727  0.37282867     0.22600
C1693       C  0.87345944  0.81488743  0.38719997    -0.33600
C1694       C  0.90413256  0.83990939  0.40177162     0.16700
O1695       O  0.96544101  0.86791424  0.41724284    -0.25600
C1696       C  0.94310067  0.88153174  0.42670891     0.06500
C1697       C  0.90474437  0.86511217  0.41772552    -0.30500
O1698       O  0.85715752  0.76426248  0.35905044    -0.22400
C1699       C  0.87848045  0.74913396  0.35013866    -0.02400
C1700       C  0.91747393  0.76632508  0.35831256    -0.16800
H1701       H  0.97932854  0.82063322  0.38794932     0.21200
H1702       H  0.84421230  0.81278489  0.38735732     0.19600
H1703       H  0.88100378  0.87142203  0.42207244     0.19500
H1704       H  0.93997328  0.75784656  0.35480988     0.15400
C1705       C  0.92738298  0.59760668  0.40905718     0.30800
C1706       C  0.93358476  0.63238894  0.39793738    -0.35500
C1707       C  0.90684767  0.62636926  0.38067630     0.16800
C1708       C  0.87606998  0.58874388  0.37470046     0.22600
C1709       C  0.86948643  0.55395947  0.38605752    -0.33600
C1710       C  0.89620517  0.55999378  0.40339673     0.16700
O1711       O  0.94998077  0.59611656  0.42501227    -0.25600
C1712       C  0.93281308  0.55710269  0.42983714     0.06500
C1713       C  0.89909201  0.53317409  0.41700775    -0.30500
O1714       O  0.85436197  0.59034702  0.35822388    -0.22400
C1715       C  0.87180233  0.62945607  0.35354575    -0.02400
C1716       C  0.90419941  0.65328711  0.36713331    -0.16800
H1717       H  0.95779254  0.66203904  0.40230831     0.21200
H1718       H  0.84536098  0.52429885  0.38163581     0.19600
H1719       H  0.88059556  0.50066803  0.41703574     0.19500
H1720       H  0.92225935  0.68581503  0.36741357     0.15400
C1721       C  0.95230593  0.87399235  0.27565853     0.30800
C1722       C  0.95829905  0.84595496  0.28762419    -0.35500
C1723       C  0.92415417  0.80791305  0.29082090     0.16800
C1724       C  0.88658244  0.79797150  0.28284208     0.22600
C1725       C  0.88053219  0.82612612  0.27100582    -0.33600
C1726       C  0.91463269  0.86427061  0.26792101     0.16700
O1727       O  0.98055057  0.91018547  0.26925079    -0.25600
C1728       C  0.96064197  0.92389122  0.25737816     0.06500
C1729       C  0.91947731  0.89686912  0.25628058    -0.30500
O1730       O  0.85856804  0.76121705  0.28864443    -0.22400
C1731       C  0.87851570  0.74748014  0.30048597    -0.02400
C1732       C  0.91940928  0.77517752  0.30223902    -0.16800
H1733       H  0.98763480  0.85314972  0.29382333     0.21200
H1734       H  0.85127632  0.81880955  0.26462485     0.19600
H1735       H  0.89711727  0.89957006  0.24664637     0.19500
H1736       H  0.94191848  0.77233335  0.31163023     0.15400
C1737       C  0.93925084  0.58112520  0.26185065     0.30800
C1738       C  0.92608336  0.60937581  0.26032038    -0.35500
C1739       C  0.90376962  0.61086801  0.27832826     0.16800
C1740       C  0.89549277  0.58657506  0.29669635     0.22600
C1741       C  0.90832465  0.55800118  0.29812604    -0.33600
C1742       C  0.93027918  0.55621499  0.27999688     0.16700
O1743       O  0.95913845  0.57368950  0.24655255    -0.25600
C1744       C  0.96222430  0.54294771  0.25465455     0.06500
C1745       C  0.94540971  0.53127824  0.27564425    -0.30500
O1746       O  0.87566636  0.59421109  0.31198621    -0.22400
C1747       C  0.87078018  0.62355468  0.30329701    -0.02400
C1748       C  0.88739959  0.63485849  0.28225482    -0.16800
H1749       H  0.93252099  0.62862263  0.24598159     0.21200
H1750       H  0.90157072  0.53846960  0.31236550     0.19600
H1751       H  0.94291276  0.50673611  0.28573521     0.19500
H1752       H  0.88884290  0.65853126  0.27180005     0.15400
C1753       C  0.62560081  0.55853117  0.27883774     0.30800
C1754       C  0.64859138  0.55593024  0.29617327    -0.35500
C1755       C  0.68890203  0.58704540  0.29730430     0.16800
C1756       C  0.70559021  0.61884418  0.28258679     0.22600
C1757       C  0.68237162  0.62182398  0.26548997    -0.33600
C1758       C  0.64209860  0.59061113  0.26428699     0.16700
O1759       O  0.58829745  0.53117835  0.27356678    -0.25600
C1760       C  0.58090807  0.54577084  0.25525832     0.06500
C1761       C  0.61297922  0.58322163  0.24914977    -0.30500
O1762       O  0.74407710  0.64434308  0.28667202    -0.22400
C1763       C  0.75210661  0.62879955  0.30437392    -0.02400
C1764       C  0.71887471  0.59290529  0.31146679    -0.16800
H1765       H  0.63624045  0.53084678  0.30764349     0.21200
H1766       H  0.69502786  0.64631811  0.25365122     0.19600
H1767       H  0.61524621  0.60134147  0.23487559     0.19500
H1768       H  0.71692855  0.57390184  0.32522718     0.15400
C1769       C  0.60097512  0.67462366  0.90966396     0.30800
C1770       C  0.63430584  0.71098182  0.90301805    -0.35500
C1771       C  0.63111852  0.72546549  0.88228642     0.16800
C1772       C  0.59746333  0.70591041  0.86902894     0.22600
C1773       C  0.56429029  0.66942283  0.87559890    -0.33600
C1774       C  0.56761051  0.65473163  0.89621998     0.16700
O1775       O  0.59741635  0.65514782  0.92828268    -0.25600
C1776       C  0.56149062  0.62230718  0.92647714     0.06500
C1777       C  0.54168862  0.62042597  0.90693980    -0.30500
O1778       O  0.60026504  0.72610683  0.85081782    -0.22400
C1779       C  0.63633505  0.75877568  0.85244448    -0.02400
C1780       C  0.65686458  0.75985797  0.87159001    -0.16800
H1781       H  0.66074590  0.72692837  0.91328962     0.21200
H1782       H  0.53768691  0.65370323  0.86542526     0.19600
H1783       H  0.51257664  0.59682337  0.90137072     0.19500
H1784       H  0.68590570  0.78350554  0.87722096     0.15400
C1785       C  0.84668046  0.91687243  0.89996905     0.30800
C1786       C  0.83785443  0.90298426  0.87812925    -0.35500
C1787       C  0.80005471  0.89441897  0.87034732     0.16800
C1788       C  0.77313069  0.89931389  0.88326680     0.22600
C1789       C  0.78164010  0.91247103  0.90521357    -0.33600
C1790       C  0.81934520  0.92091528  0.91303999     0.16700
O1791       O  0.88080079  0.92824866  0.91019694    -0.25600
C1792       C  0.87520889  0.93925702  0.93013238     0.06500
C1793       C  0.83738039  0.93513563  0.93301324    -0.30500
O1794       O  0.73949844  0.88924848  0.87286678    -0.22400
C1795       C  0.74463929  0.87790278  0.85295490    -0.02400
C1796       C  0.78174434  0.87993988  0.85047815    -0.16800
H1797       H  0.85912149  0.89948894  0.86789855     0.21200
H1798       H  0.76035545  0.91599728  0.91541323     0.19600
H1799       H  0.82562230  0.94294592  0.94728024     0.19500
H1800       H  0.79285736  0.87038628  0.83664240     0.15400
C1801       C  0.58710670  0.87953745  0.87238651     0.30800
C1802       C  0.55305100  0.88047285  0.87997459    -0.35500
C1803       C  0.55694422  0.89842319  0.90067907     0.16800
C1804       C  0.59152144  0.91359711  0.91329458     0.22600
C1805       C  0.62555688  0.91290225  0.90561753    -0.33600
C1806       C  0.62195805  0.89591006  0.88473254     0.16700
O1807       O  0.59038745  0.86379204  0.85366044    -0.25600
C1808       C  0.62822594  0.87131304  0.85385215     0.06500
C1809       C  0.64907313  0.89128916  0.87276886    -0.30500
O1810       O  0.58909302  0.93055258  0.93172191    -0.22400
C1811       C  0.55262938  0.92642781  0.93073264    -0.02400
C1812       C  0.53135293  0.90683589  0.91182332    -0.16800
H1813       H  0.52575485  0.86869127  0.87030247     0.21200
H1814       H  0.65319960  0.92551878  0.91503444     0.19600
H1815       H  0.67953394  0.89999757  0.87745225     0.19500
H1816       H  0.50200161  0.90133583  0.90661848     0.15400
C1817       C  0.86178556  0.91918703  0.76383806     0.30800
C1818       C  0.82215130  0.88682619  0.76388417    -0.35500
C1819       C  0.79611011  0.88878717  0.77946314     0.16800
C1820       C  0.80843696  0.92024426  0.79418492     0.22600
C1821       C  0.84821468  0.95257346  0.79422345    -0.33600
C1822       C  0.87423104  0.95076851  0.77849513     0.16700
O1823       O  0.89005763  0.92470718  0.74960670    -0.25600
C1824       C  0.92110239  0.96030253  0.75508659     0.06500
C1825       C  0.91327562  0.97776327  0.77317040    -0.30500
O1826       O  0.77947185  0.91516430  0.80785948    -0.22400
C1827       C  0.74817450  0.88008481  0.80179391    -0.02400
C1828       C  0.75661992  0.86251716  0.78403241    -0.16800
H1829       H  0.81215972  0.86214844  0.75230234     0.21200
H1830       H  0.85807541  0.97751434  0.80561369     0.19600
H1831       H  0.93251636  0.00718384  0.78028286     0.19500
H1832       H  0.73720171  0.83354539  0.77649107     0.15400
C1833       C  0.58853021  0.89995963  0.79622799     0.30800
C1834       C  0.56024681  0.91312934  0.79777280    -0.35500
C1835       C  0.55747345  0.93404778  0.77938583     0.16800
C1836       C  0.58110109  0.94154338  0.76083364     0.22600
C1837       C  0.60945648  0.92842586  0.75931158    -0.33600
C1838       C  0.61204402  0.90727488  0.77765956     0.16700
O1839       O  0.59606849  0.88008680  0.81151784    -0.25600
C1840       C  0.62475244  0.87429879  0.80282965     0.06500
C1841       C  0.63575004  0.89046226  0.78162052    -0.30500
O1842       O  0.57247197  0.96011577  0.74523671    -0.22400
C1843       C  0.54261015  0.96435692  0.75367382    -0.02400
C1844       C  0.53239656  0.94912075  0.77508189    -0.16800
H1845       H  0.54144724  0.90712388  0.81225179     0.21200
H1846       H  0.62778746  0.93384090  0.74468917     0.19600
H1847       H  0.65859387  0.89080873  0.77093194     0.19500
H1848       H  0.50400684  0.44020646  0.78557455     0.15400
C1849       C  0.59728333  0.70965569  0.77969877     0.30800
C1850       C  0.56870843  0.68591481  0.76372625    -0.35500
C1851       C  0.55912202  0.64539302  0.76261554     0.16800
C1852       C  0.57689934  0.62934156  0.77592649     0.22600
C1853       C  0.60566568  0.65315865  0.79178536    -0.33600
C1854       C  0.61485944  0.69351930  0.79310192     0.16700
O1855       O  0.60863809  0.74747686  0.78472501    -0.25600
C1856       C  0.63355812  0.75552309  0.80171697     0.06500
C1857       C  0.63905236  0.72322264  0.80730562    -0.30500
O1858       O  0.56454896  0.59109235  0.77142006    -0.22400
C1859       C  0.53850913  0.58250823  0.75494710    -0.02400
C1860       C  0.53340302  0.61502225  0.74917474    -0.16800
H1861       H  0.55443138  0.69797783  0.75315676     0.21200
H1862       H  0.61964080  0.64099397  0.80250960     0.19600
H1863       H  0.65695725  0.72128438  0.82057075     0.19500
H1864       H  0.01611760  0.61754051  0.73507597     0.15400
C1865       C  0.58335298  0.67536895  0.54762098     0.30800
C1866       C  0.58977355  0.71372601  0.55272905    -0.35500
C1867       C  0.60078438  0.72616195  0.57458647     0.16800
C1868       C  0.60585017  0.70298138  0.59037208     0.22600
C1869       C  0.59912028  0.66439833  0.58531789    -0.33600
C1870       C  0.58764339  0.65172265  0.56347006     0.16700
O1871       O  0.57104413  0.65697385  0.52845330    -0.25600
C1872       C  0.56722553  0.62102578  0.53213601     0.06500
C1873       C  0.57722907  0.61610490  0.55358543    -0.30500
O1874       O  0.61827447  0.72174830  0.60947848    -0.22400
C1875       C  0.62069079  0.75719781  0.60585824    -0.02400
C1876       C  0.60966588  0.76121532  0.58449483    -0.16800
H1877       H  0.58615095  0.73246423  0.54056237     0.21200
H1878       H  0.60250141  0.64558191  0.59753250     0.19600
H1879       H  0.57542975  0.58949328  0.56103636     0.19500
H1880       H  0.60941158  0.78679856  0.57699619     0.15400
C1881       C  0.82406538  0.90200692  0.54965838     0.30800
C1882       C  0.78654616  0.86933429  0.55542744    -0.35500
C1883       C  0.77311016  0.87023594  0.57684767     0.16800
C1884       C  0.79485748  0.90104249  0.59159809     0.22600
C1885       C  0.83264650  0.93325438  0.58598616    -0.33600
C1886       C  0.84606184  0.93240770  0.56458281     0.16700
O1887       O  0.84261002  0.90763800  0.53049088    -0.30400
C1888       C  0.87690551  0.94201377  0.53333690     0.06500
C1889       C  0.88060943  0.95866607  0.55419386    -0.30500
O1890       O  0.77507137  0.89735948  0.61006512    -0.22400
C1891       C  0.74038702  0.86355116  0.60712733    -0.02400
C1892       C  0.73768401  0.84524418  0.58686819    -0.16800
H1893       H  0.76878813  0.84532891  0.54393672     0.21200
H1894       H  0.84996549  0.95770294  0.59731865     0.19600
H1895       H  0.90564119  0.98579424  0.56087411     0.19500
H1896       H  0.71243575  0.81841271  0.58007577     0.15400
C1897       C  0.56314430  0.91303269  0.56213809     0.30800
C1898       C  0.55943076  0.89918250  0.58393185    -0.35500
C1899       C  0.59021325  0.89246676  0.59128294     0.16800
C1900       C  0.62239490  0.89921125  0.57809576     0.22600
C1901       C  0.62583394  0.91252129  0.55623936    -0.33600
C1902       C  0.59489596  0.91882732  0.54881200     0.16700
O1903       O  0.53880217  0.92285484  0.55216963    -0.25600
C1904       C  0.55481956  0.93436999  0.53214663     0.06500
C1905       C  0.58961700  0.93230291  0.52899852    -0.30500
O1906       O  0.64709189  0.88993781  0.58803530    -0.22400
C1907       C  0.63082247  0.87721337  0.60790082    -0.02400
C1908       C  0.59500138  0.87766258  0.61080156    -0.16800
H1909       H  0.53438497  0.89410175  0.59440314     0.21200
H1910       H  0.65078233  0.91739539  0.54574391     0.19600
H1911       H  0.60919584  0.94144159  0.51467880     0.19500
H1912       H  0.57426390  0.86648674  0.62460119     0.15400
C1913       C  0.54978753  0.62675521  0.68442829     0.30800
C1914       C  0.54360913  0.65099192  0.66929742    -0.35500
C1915       C  0.57587970  0.69031610  0.66643668     0.16800
C1916       C  0.61167671  0.70501003  0.67781763     0.22600
C1917       C  0.61787238  0.68078050  0.69294163    -0.33600
C1918       C  0.58578371  0.64131145  0.69559444     0.16700
O1919       O  0.52313406  0.58959246  0.69032266    -0.25600
C1920       C  0.54234284  0.58025990  0.70545554     0.06500
C1921       C  0.58163678  0.61108030  0.70913548    -0.30500
O1922       O  0.63812198  0.74236316  0.67217021    -0.22400
C1923       C  0.61915418  0.75155042  0.65680848    -0.02400
C1924       C  0.58021149  0.72044860  0.65272157    -0.16800
H1925       H  0.51559016  0.63998040  0.66039255     0.21200
H1926       H  0.64580600  0.69186154  0.70194313     0.19600
H1927       H  0.60307184  0.61186129  0.72106164     0.19500
H1928       H  0.55873596  0.71979114  0.64086767     0.15400
C1929       C  0.87092866  0.92362473  0.68398490     0.30800
C1930       C  0.84712487  0.89456025  0.66816427    -0.35500
C1931       C  0.80692452  0.88586450  0.66637431     0.16800
C1932       C  0.79115543  0.90454954  0.67914420     0.22600
C1933       C  0.81497251  0.93365676  0.69489375    -0.33600
C1934       C  0.85509204  0.94231040  0.69670269     0.16700
O1935       O  0.90880367  0.93529157  0.68911050    -0.25600
C1936       C  0.91721370  0.96159836  0.70546482     0.06500
C1937       C  0.88505250  0.96758207  0.71053641    -0.30500
O1938       O  0.75328202  0.89295149  0.67413529    -0.22400
C1939       C  0.74457332  0.86654075  0.65782915    -0.02400
C1940       C  0.77675549  0.86059753  0.65258693    -0.16800
H1941       H  0.85904126  0.87963516  0.65801104     0.21200
H1942       H  0.80306990  0.94860157  0.70503857     0.19600
H1943       H  0.88351603  0.98667124  0.72323227     0.19500
H1944       H  0.77822201  0.84158296  0.63982106     0.15400
C1945       C  0.60848827  0.91737135  0.66639947     0.30800
C1946       C  0.60242584  0.95068555  0.66672007    -0.35500
C1947       C  0.57339653  0.94853685  0.68165830     0.16800
C1948       C  0.55177222  0.91577780  0.69533377     0.22600
C1949       C  0.55750009  0.88220648  0.69483175    -0.33600
C1950       C  0.58678892  0.88449290  0.67997703     0.16700
O1951       O  0.63349826  0.91280998  0.65335096    -0.25600
C1952       C  0.62802552  0.87660515  0.65863574     0.06500
C1953       C  0.59948714  0.85764942  0.67523899    -0.30500
O1954       O  0.52829567  0.92136940  0.70910917    -0.22400
C1955       C  0.53493833  0.95815060  0.70417167    -0.02400
C1956       C  0.56227788  0.97627735  0.68701007    -0.16800
H1957       H  0.61948506  0.97666675  0.65620242     0.21200
H1958       H  0.54085150  0.85647654  0.70557565     0.19600
H1959       H  0.58818082  0.82763944  0.68189826     0.19500
H1960       H  0.57642578  0.50787057  0.68193453     0.15400
loop_ 
_geom_bond_atom_site_label_1 
_geom_bond_atom_site_label_2 
_geom_bond_distance 
_geom_bond_site_symmetry_2 
_ccdc_geom_bond_type 
C1            H2   1.111       .  S
C1            C7   1.557       .  S
C1            C6   1.556       .  S
C1            C5   1.553       .  S
C3            H4   1.109       .  S
C3            C9   1.520       .  S
C3            C8   1.518       .  S
C3           C10   1.519       .  S
C5            C8   1.370       .  D
C5          C482   1.482       .  S
C6            C9   1.372       .  D
C6          C469   1.491       .  S
C7           C10   1.373       .  D
C7          C453   1.478       .  S
C8          C437   1.472       .  S
C9          C421   1.470       .  S
C10         C405   1.479       .  S
C11          H12   1.111       .  S
C11          C17   1.549       .  S
C11          C16   1.560       .  S
C11          C15   1.555       .  S
C13          H14   1.109       .  S
C13          C19   1.519       .  S
C13          C18   1.514       .  S
C13          C20   1.516       .  S
C15          C18   1.373       .  D
C15         C357   1.484       .  S
C16          C19   1.380       .  D
C16         C370   1.488       .  S
C17          C20   1.371       .  D
C17         C386   1.484       .  S
C18         C325   1.467       .  S
C19         C338   1.485       .  S
C20         C309   1.470       .  S
C21        H1002   1.110       .  S
C21          C27   1.542       .  S
C21        C1496   1.542   1_445  S
C21         C515   1.547   1_545  S
H22        C1001   1.111       .  S
C23          H24   1.111   1_545  S
C23          C30   1.537   1_655  S
C23        C1499   1.538   1_545  S
C23         C518   1.540   1_645  S
C25         C511   1.543       .  S
C25          C28   1.375       .  D
C25         C373   1.487       .  S
C26        C1491   1.543       .  S
C26          C29   1.376       .  D
C26         C354   1.485       .  S
C27          C30   1.375       .  D
C27         C389   1.490       .  S
C28         C513   1.538   1_455  S
C28         C485   1.481       .  S
C29        C1493   1.540       .  S
C29         C466   1.489       .  S
C30         C450   1.480       .  S
C31          H32   1.110       .  S
C31          C37   1.544       .  S
C31          C36   1.557       .  S
C31          C35   1.551       .  S
C33          H34   1.113       .  S
C33          C39   1.517       .  S
C33          C38   1.520       .  S
C33          C40   1.521       .  S
C35          C38   1.373       .  D
C35         C293   1.484       .  S
C36          C39   1.372       .  D
C36         C277   1.486       .  S
C37          C40   1.367       .  D
C37         C261   1.475       .  S
C38         C213   1.468       .  S
C39         C245   1.464       .  S
C40         C229   1.464       .  S
C41          H42   1.113       .  S
C41          C47   1.511       .  S
C41          C46   1.520       .  S
C41          C45   1.525       .  S
C43          H44   1.109       .  S
C43          C49   1.549       .  S
C43          C48   1.552       .  S
C43          C50   1.559       .  S
C45          C48   1.373       .  D
C45         C117   1.469       .  S
C46          C49   1.370       .  D
C46         C149   1.464       .  S
C47          C50   1.375       .  D
C47         C130   1.469       .  S
C48         C197   1.489       .  S
C49         C178   1.487       .  S
C50         C162   1.486       .  S
C51          H52   1.109       .  S
C51          C57   1.545   1_565  S
C51        C1526   1.546   1_455  S
C51        C1035   1.544   1_465  S
C53          H54   1.111       .  S
C53          C60   1.536       .  S
C53        C1529   1.537   1_445  S
C53        C1038   1.539   1_455  S
C55        C1031   1.545   1_545  S
C55          C58   1.378       .  D
C55         C181   1.488       .  S
C56        C1521   1.542       .  S
C56          C59   1.374       .  D
C56         C165   1.492       .  S
C57          C60   1.376       .  D
C57         C194   1.489       .  S
C58        C1033   1.540       .  S
C58         C274   1.490       .  S
C59        C1523   1.538       .  S
C59         C258   1.476       .  S
C60         C290   1.485       .  S
Zn61         O65   1.969       .  S
Zn61         O70   2.027       .  S
Zn61         O77   2.019   1_556  S
Zn61       O1046   2.030   1_456  S
Zn62       O1535   1.965       .  S
Zn62         O67   2.046       .  S
Zn62         O73   2.016   1_556  S
Zn62        O559   1.993   1_556  S
Zn63         O65   1.914   1_665  S
Zn63         O68   1.960   1_665  S
Zn63       O1541   1.935       .  S
Zn63        O564   1.951   1_655  S
Zn64        O555   1.956       .  S
Zn64         O72   2.025       .  S
Zn64       O1055   2.008   1_456  S
Zn64        O566   2.003   1_556  S
O65       Zn1532   1.963   1_445  S
O65        Zn554   1.953   1_545  S
O66       Zn1041   2.030   1_554  S
O66          C78   1.275       .  A
O67          C79   1.273       .  A
O68          C80   1.266       .  A
O69        Zn552   2.000   1_544  S
O69          C78   1.273       .  A
O70          C80   1.273       .  A
O71       Zn1533   1.950       .  S
O71          C79   1.263       .  A
O72          C81   1.272       .  A
O73          C82   1.274       .  A
O74        Zn553   1.964   1_455  S
O74          C81   1.267       .  A
O75       Zn1044   2.001   1_554  S
O75          C82   1.271       .  A
O76        Zn554   2.001   1_544  S
O76          C83   1.272       .  A
O77          C83   1.272       .  A
C78         C146   1.464       .  S
C79         C322   1.457       .  S
C80         C306   1.454       .  S
C81         C341   1.457       .  S
C82         C133   1.465       .  S
C83         C114   1.464       .  S
Zn84        O578   1.959       .  S
Zn84         O93   2.040       .  S
Zn84       O1069   2.027   1_455  S
Zn84        O590   2.008       .  S
Zn85       O1558   1.955       .  S
Zn85         O90   2.040       .  S
Zn85         O92   1.996       .  S
Zn85        O586   2.015       .  S
Zn86         O88   1.916       .  S
Zn86         O97   1.962   1_655  S
Zn86        O581   1.958   1_645  S
Zn86       O1564   1.965   1_545  S
Zn87         O88   1.957   1_455  S
Zn87         O95   2.054       .  S
Zn87         O99   2.021       .  S
Zn87       O1078   2.002   1_455  S
O88        Zn574   1.959   1_645  S
O88       Zn1555   1.958   1_545  S
O89       Zn1064   2.030       .  S
O89         C101   1.275       .  A
O90         C102   1.274       .  A
O91        Zn576   1.955       .  S
O91         C103   1.264       .  A
O92         C101   1.273       .  A
O93         C103   1.275       .  A
O94       Zn1556   1.958       .  S
O94         C102   1.265       .  A
O95         C104   1.276       .  A
O96        Zn575   2.012   1_545  S
O96         C105   1.274       .  A
O97         C104   1.266       .  A
O98       Zn1067   2.004       .  S
O98         C105   1.273       .  A
O99         C106   1.273       .  A
O100       Zn574   2.007   1_545  S
O100        C106   1.273       .  A
C101        C226   1.466       .  S
C102        C418   1.460       .  S
C103        C434   1.457       .  S
C104        C402   1.466       .  S
C105        C242   1.463       .  S
C106        C210   1.465       .  S
C107        C112   1.381       .  A
C107        C108   1.401       .  A
C107        O113   1.319       .  A
C108        C109   1.401       .  A
C108        H119   1.082       .  S
C109        C118   1.357       .  A
C109        C110   1.381       .  A
C110        C111   1.401       .  A
C110        O116   1.319       .  A
C111        C112   1.402       .  A
C111        H120   1.082       .  S
C112        C115   1.358       .  A
O113        C114   1.330       .  A
C114        C115   1.390       .  A
C115        H121   1.083       .  S
O116        C117   1.329       .  A
C117        C118   1.388       .  A
C118        H122   1.082       .  S
C123        C128   1.381       .  A
C123        C124   1.401       .  A
C123        O129   1.316       .  A
C124        C125   1.400       .  A
C124        H135   1.082       .  S
C125        C134   1.360       .  A
C125        C126   1.380       .  A
C126        C127   1.404       .  A
C126        O132   1.317       .  A
C127        C128   1.403       .  A
C127        H136   1.082       .  S
C128        C131   1.363       .  A
O129        C130   1.328       .  A
C130        C131   1.390       .  A
C131        H137   1.082       .  S
O132        C133   1.331       .  A
C133        C134   1.390       .  A
C134        H138   1.082       .  S
C139        C144   1.381       .  A
C139        C140   1.397       .  A
C139        O145   1.312       .  A
C140        C141   1.395       .  A
C140        H151   1.082       .  S
C141        C150   1.356       .  A
C141        C142   1.381       .  A
C142        C143   1.406       .  A
C142        O148   1.318       .  A
C143        C144   1.405       .  A
C143        H152   1.082       .  S
C144        C147   1.366       .  A
O145        C146   1.327       .  A
C146        C147   1.393       .  A
C147        H153   1.082       .  S
O148        C149   1.331       .  A
C149        C150   1.383       .  A
C150        H154   1.082       .  S
C155        C160   1.379       .  A
C155        C156   1.402       .  A
C155        O161   1.312       .  A
C156        C157   1.399       .  A
C156        H167   1.083       .  S
C157        C166   1.363       .  A
C157        C158   1.378       .  A
C158        C159   1.409       .  A
C158        O164   1.318       .  A
C159        C160   1.406       .  A
C159        H168   1.083       .  S
C160        C163   1.371       .  A
O161        C162   1.330       .  A
C162        C163   1.395       .  A
C163        H169   1.082       .  S
O164        C165   1.335       .  A
C165        C166   1.391       .  A
C166        H170   1.082       .  S
C171        C176   1.379       .  A
C171        C172   1.406       .  A
C171        O177   1.317       .  A
C172        C173   1.404       .  A
C172        H183   1.082       .  S
C173        C182   1.368       .  A
C173        C174   1.379       .  A
C174        C175   1.406       .  A
C174        O180   1.317       .  A
C175        C176   1.404       .  A
C175        H184   1.082       .  S
C176        C179   1.368       .  A
O177        C178   1.333       .  A
C178        C179   1.392       .  A
C179        H185   1.082       .  S
O180        C181   1.332       .  A
C181        C182   1.391       .  A
C182       H1166   1.082       .  S
H186       C1162   1.082       .  S
C187        C192   1.379       .  A
C187        C188   1.406       .  A
C187        O193   1.317       .  A
C188        C189   1.404       .  A
C188        H199   1.082       .  S
C189        C198   1.367       .  A
C189        C190   1.379       .  A
C190        C191   1.406       .  A
C190        O196   1.318       .  A
C191        C192   1.404       .  A
C191        H200   1.082       .  S
C192        C195   1.367       .  A
O193        C194   1.333       .  A
C194        C195   1.392       .  A
C195        H201   1.082       .  S
O196        C197   1.333       .  A
C197        C198   1.393       .  A
C198        H202   1.082       .  S
C203        C208   1.380       .  A
C203        C204   1.405       .  A
C203        O209   1.319       .  A
C204        C205   1.403       .  A
C204        H215   1.082       .  S
C205        C214   1.363       .  A
C205        C206   1.381       .  A
C206        C207   1.399       .  A
C206        O212   1.313       .  A
C207        C208   1.398       .  A
C207        H216   1.082       .  S
C208        C211   1.358       .  A
O209        C210   1.331       .  A
C210        C211   1.389       .  A
C211        H217   1.082       .  S
O212        C213   1.327       .  A
C213        C214   1.390       .  A
C214        H218   1.082       .  S
C219        C224   1.381       .  A
C219        C220   1.403       .  A
C219        O225   1.319       .  A
C220        C221   1.403       .  A
C220        H231   1.082       .  S
C221        C230   1.360       .  A
C221        C222   1.381       .  A
C222        C223   1.399       .  A
C222        O228   1.316       .  A
C223        C224   1.399       .  A
C223        H232   1.082       .  S
C224        C227   1.356       .  A
O225        C226   1.331       .  A
C226        C227   1.390       .  A
C227        H233   1.083       .  S
O228        C229   1.327       .  A
C229        C230   1.388       .  A
C230        H234   1.082       .  S
C235        C240   1.381       .  A
C235        C236   1.400       .  A
C235        O241   1.315       .  A
C236        C237   1.399       .  A
C236        H247   1.082       .  S
C237        C246   1.357       .  A
C237        C238   1.381       .  A
C238        C239   1.402       .  A
C238        O244   1.317       .  A
C239        C240   1.402       .  A
C239        H248   1.082       .  S
C240        C243   1.361       .  A
O241        C242   1.329       .  A
C242        C243   1.391       .  A
C243        H249   1.082       .  S
O244        C245   1.329       .  A
C245        C246   1.386       .  A
C246        H250   1.082       .  S
C251        C256   1.381       .  A
C251        C252   1.403       .  A
C251        O257   1.321       .  A
C252        C253   1.404       .  A
C252        H263   1.083       .  S
C253        C262   1.360       .  A
C253        C254   1.381       .  A
C254        C255   1.403       .  A
C254        O260   1.321       .  A
C255        C256   1.403       .  A
C255        H264   1.083       .  S
C256        C259   1.360       .  A
O257        C258   1.330       .  A
C258        C259   1.391       .  A
C259        H265   1.083       .  S
O260        C261   1.330       .  A
C261        C262   1.391       .  A
C262        H266   1.083       .  S
C267        C272   1.379       .  A
C267        C268   1.405       .  A
C267        O273   1.317       .  A
C268        C269   1.403       .  A
C268        H279   1.083       .  S
C269        C278   1.366       .  A
C269        C270   1.379       .  A
C270        C271   1.406       .  A
C270        O276   1.318       .  A
C271        C272   1.404       .  A
C271        H280   1.083       .  S
C272        C275   1.366       .  A
O273        C274   1.332       .  A
C274        C275   1.392       .  A
C275        H281   1.082       .  S
O276        C277   1.333       .  A
C277        C278   1.391       .  A
C278        H282   1.082       .  S
C283        C288   1.381       .  A
C283        C284   1.402       .  A
C283        O289   1.321       .  A
C284        C285   1.402       .  A
C284        H295   1.082       .  S
C285        C294   1.357       .  A
C285        C286   1.380       .  A
C286        C287   1.406       .  A
C286        O292   1.325       .  A
C287        C288   1.407       .  A
C287        H296   1.082       .  S
C288        C291   1.362       .  A
O289        C290   1.329       .  A
C290        C291   1.395       .  A
C291        H297   1.083       .  S
O292        C293   1.333       .  A
C293        C294   1.392       .  A
C294        H298   1.082       .  S
C299        C304   1.382       .  A
C299        C300   1.397       .  A
C299        O305   1.317       .  A
C300        C301   1.398       .  A
C300        H311   1.082       .  S
C301        C310   1.351       .  A
C301        C302   1.382       .  A
C302        C303   1.399       .  A
C302        O308   1.318       .  A
C303        C304   1.401       .  A
C303        H312   1.082       .  S
C304        C307   1.354       .  A
O305        C306   1.327       .  A
C306        C307   1.389       .  A
C307        H313   1.083       .  S
O308        C309   1.329       .  A
C309        C310   1.388       .  A
C310        H314   1.083       .  S
C315        C320   1.381       .  A
C315        C316   1.400       .  A
C315        O321   1.309       .  A
C316        C317   1.395       .  A
C316        H327   1.083       .  S
C317        C326   1.361       .  A
C317        C318   1.379       .  A
C318        C319   1.401       .  A
C318        O324   1.308       .  A
C319        C320   1.397       .  A
C319        H328   1.083       .  S
C320        C323   1.365       .  A
O321        C322   1.328       .  A
C322        C323   1.389       .  A
C323        H329   1.082       .  S
O324        C325   1.328       .  A
C325        C326   1.389       .  A
C326        H330   1.082       .  S
C331        C336   1.378       .  A
C331        C332   1.398       .  A
C331        O337   1.317       .  A
C332        C333   1.400       .  A
C332        H343   1.082       .  S
C333        C342   1.353       .  A
C333        C334   1.382       .  A
C334        C335   1.398       .  A
C334        O340   1.318       .  A
C335        C336   1.400       .  A
C335        H344   1.083       .  S
C336        C339   1.350       .  A
O337        C338   1.328       .  A
C338        C339   1.395       .  A
C339        H345   1.080       .  S
O340        C341   1.328       .  A
C341        C342   1.389       .  A
C342        H346   1.083       .  S
C347        C352   1.379       .  A
C347        C348   1.406       .  A
C347        O353   1.317       .  A
C348        C349   1.404       .  A
C348        H359   1.083       .  S
C349        C358   1.368       .  A
C349        C350   1.379       .  A
C350        C351   1.405       .  A
C350        O356   1.318       .  A
C351        C352   1.403       .  A
C351        H360   1.083       .  S
C352        C355   1.367       .  A
O353        C354   1.333       .  A
C354        C355   1.391       .  A
C355        H361   1.083       .  S
O356        C357   1.332       .  A
C357        C358   1.392       .  A
C358        H362   1.083       .  S
C363        C368   1.378       .  A
C363        C364   1.406       .  A
C363        O369   1.317       .  A
C364        C365   1.404       .  A
C364        H375   1.083       .  S
C365        C374   1.367       .  A
C365        C366   1.380       .  A
C366        C367   1.406       .  A
C366        O372   1.318       .  A
C367        C368   1.404       .  A
C367        H376   1.083       .  S
C368        C371   1.368       .  A
O369        C370   1.331       .  A
C370        C371   1.393       .  A
C371        H377   1.083       .  S
O372        C373   1.333       .  A
C373        C374   1.391       .  A
C374        H868   1.083       .  S
H378        C864   1.082       .  S
C379        C384   1.380       .  A
C379        C380   1.404       .  A
C379        O385   1.323       .  A
C380        C381   1.406       .  A
C380        H391   1.082       .  S
C381        C390   1.359       .  A
C381        C382   1.380       .  A
C382        C383   1.403       .  A
C382        O388   1.323       .  A
C383        C384   1.404       .  A
C383        H392   1.082       .  S
C384        C387   1.357       .  A
O385        C386   1.331       .  A
C386        C387   1.394       .  A
C387        H393   1.082       .  S
O388        C389   1.331       .  A
C389        C390   1.396       .  A
C390       H1374   1.082       .  S
H394       C1370   1.082       .  S
C395        C400   1.382       .  A
C395        C396   1.399       .  A
C395        O401   1.320       .  A
C396        C397   1.401       .  A
C396        H407   1.083       .  S
C397        C406   1.352       .  A
C397        C398   1.380       .  A
C398        C399   1.402       .  A
C398        O404   1.321       .  A
C399        C400   1.404       .  A
C399        H408   1.083       .  S
C400        C403   1.356       .  A
O401        C402   1.328       .  A
C402        C403   1.393       .  A
C403        H409   1.083       .  S
O404        C405   1.331       .  A
C405        C406   1.392       .  A
C406        H410   1.082       .  S
C411        C416   1.382       .  A
C411        C412   1.398       .  A
C411        O417   1.319       .  A
C412        C413   1.400       .  A
C412        H423   1.082       .  S
C413        C422   1.351       .  A
C413        C414   1.381       .  A
C414        C415   1.399       .  A
C414        O420   1.319       .  A
C415        C416   1.401       .  A
C415        H424   1.082       .  S
C416        C419   1.353       .  A
O417        C418   1.328       .  A
C418        C419   1.390       .  A
C419        H425   1.083       .  S
O420        C421   1.328       .  A
C421        C422   1.390       .  A
C422        H426   1.083       .  S
C427        C432   1.381       .  A
C427        C428   1.402       .  A
C427        O433   1.313       .  A
C428        C429   1.399       .  A
C428        H439   1.083       .  S
C429        C438   1.362       .  A
C429        C430   1.380       .  A
C430        C431   1.399       .  A
C430        O436   1.311       .  A
C431        C432   1.397       .  A
C431        H440   1.083       .  S
C432        C435   1.361       .  A
O433        C434   1.330       .  A
C434        C435   1.387       .  A
C435        H441   1.083       .  S
O436        C437   1.328       .  A
C437        C438   1.392       .  A
C438        H442   1.082       .  S
C443        C448   1.380       .  A
C443        C444   1.406       .  A
C443        O449   1.323       .  A
C444        C445   1.407       .  A
C444        H455   1.082       .  S
C445        C454   1.363       .  A
C445        C446   1.381       .  A
C446        C447   1.401       .  A
C446        O452   1.320       .  A
C447        C448   1.401       .  A
C447        H456   1.082       .  S
C448        C451   1.358       .  A
O449        C450   1.332       .  A
C450        C451   1.390       .  A
C451        H457   1.082       .  S
O452        C453   1.329       .  A
C453        C454   1.393       .  A
C454        H458   1.082       .  S
C459        C464   1.380       .  A
C459        C460   1.408       .  A
C459        O465   1.325       .  A
C460        C461   1.409       .  A
C460        H471   1.082       .  S
C461        C470   1.365       .  A
C461        C462   1.380       .  A
C462        C463   1.406       .  A
C462        O468   1.324       .  A
C463        C464   1.406       .  A
C463        H472   1.082       .  S
C464        C467   1.361       .  A
O465        C466   1.333       .  A
C466        C467   1.393       .  A
C467        H473   1.083       .  S
O468        C469   1.332       .  A
C469        C470   1.396       .  A
C470        H474   1.082       .  S
C475        C480   1.379       .  A
C475        C476   1.405       .  A
C475        O481   1.318       .  A
C476        C477   1.403       .  A
C476        H487   1.082       .  S
C477        C486   1.366       .  A
C477        C478   1.380       .  A
C478        C479   1.405       .  A
C478        O484   1.318       .  A
C479        C480   1.403       .  A
C479        H488   1.082       .  S
C480        C483   1.366       .  A
O481        C482   1.332       .  A
C482        C483   1.391       .  A
C483        H489   1.082       .  S
O484        C485   1.332       .  A
C485        C486   1.390       .  A
C486        H980   1.082       .  S
H490        C976   1.082   1_545  S
C491        H492   1.111       .  S
C491        C497   1.555       .  S
C491        C496   1.556       .  S
C491        C495   1.554       .  S
C493        H494   1.107       .  S
C493        C499   1.518       .  S
C493        C498   1.516       .  S
C493        C500   1.519       .  S
C495        C498   1.371       .  D
C495        C972   1.480       .  S
C496        C499   1.372       .  D
C496        C959   1.491       .  S
C497        C500   1.376       .  D
C497        C943   1.478       .  S
C498        C927   1.474       .  S
C499        C911   1.470       .  S
C500        C895   1.481       .  S
C501        H502   1.110       .  S
C501        C507   1.551       .  S
C501        C506   1.559       .  S
C501        C505   1.557       .  S
C503        H504   1.111       .  S
C503        C509   1.519       .  S
C503        C508   1.513       .  S
C503        C510   1.514       .  S
C505        C508   1.373       .  D
C505        C847   1.478       .  S
C506        C509   1.375       .  D
C506        C860   1.493       .  S
C507        C510   1.371       .  D
C507        C876   1.484       .  S
C508        C815   1.475       .  S
C509        C828   1.473       .  S
C510        C799   1.467       .  S
C511       H1492   1.111       .  S
C511        C517   1.544       .  S
C511       C1006   1.543   1_455  S
H512       C1491   1.111       .  S
C513        H514   1.111       .  S
C513       C1009   1.540       .  S
C513        C520   1.536   1_655  S
C515        C518   1.377       .  D
C515        C863   1.495       .  S
C516       C1001   1.543   1_565  S
C516        C519   1.377       .  D
C516        C844   1.481       .  S
C517        C520   1.376       .  D
C517        C879   1.489       .  S
C518        C975   1.480       .  S
C519       C1003   1.537       .  S
C519        C956   1.491       .  S
C520        C940   1.482       .  S
C521        H522   1.110       .  S
C521        C527   1.548       .  S
C521        C526   1.559       .  S
C521        C525   1.552       .  S
C523        H524   1.113       .  S
C523        C529   1.520       .  S
C523        C528   1.520       .  S
C523        C530   1.521       .  S
C525        C528   1.371       .  D
C525        C783   1.490       .  S
C526        C529   1.375       .  D
C526        C767   1.487       .  S
C527        C530   1.369       .  D
C527        C751   1.479       .  S
C528        C703   1.462       .  S
C529        C735   1.470       .  S
C530        C719   1.469       .  S
C531        H532   1.113       .  S
C531        C537   1.511       .  S
C531        C536   1.522       .  S
C531        C535   1.521       .  S
C533        H534   1.109       .  S
C533        C539   1.551       .  S
C533        C538   1.555       .  S
C533        C540   1.564       .  S
C535        C538   1.371       .  D
C535        C607   1.470       .  S
C536        C539   1.371       .  D
C536        C639   1.463       .  S
C537        C540   1.376       .  D
C537        C620   1.469       .  S
C538        C687   1.487       .  S
C539        C668   1.492       .  S
C540        C652   1.492       .  S
C541        H542   1.109       .  S
C541        C547   1.543   1_655  S
C541       C1036   1.543       .  S
C541       C1525   1.544       .  S
C543        H544   1.111       .  S
C543       C1039   1.537   1_455  S
C543       C1528   1.540   1_455  S
C543        C550   1.536       .  S
C545       C1521   1.544       .  S
C545        C548   1.379       .  D
C545        C671   1.492       .  S
C546       C1031   1.545       .  S
C546        C549   1.376       .  D
C546        C655   1.496       .  S
C547        C550   1.377       .  D
C547        C684   1.486       .  S
C548       C1523   1.541       .  S
C548        C764   1.488       .  S
C549       C1033   1.538   1_565  S
C549        C748   1.480       .  S
C550        C780   1.489       .  S
Zn551       O555   1.966       .  S
Zn551      O1536   2.018   1_456  S
Zn551       O560   2.018       .  S
Zn551       O567   2.013   1_556  S
Zn552      O1045   1.963       .  S
Zn552       O557   2.057       .  S
Zn552       O563   2.020   1_556  S
Zn553       O555   1.917   1_655  S
Zn553       O558   1.973   1_655  S
Zn553      O1051   1.955       .  S
Zn554       O562   2.034       .  S
Zn554      O1545   2.008   1_456  S
O555      Zn1042   1.963   1_455  S
O556      Zn1531   2.019   1_554  S
O556        C568   1.274       .  A
O557        C569   1.275       .  A
O558        C570   1.268       .  A
O559        C568   1.272       .  A
O560        C570   1.272       .  A
O561      Zn1043   1.943       .  S
O561        C569   1.262       .  A
O562        C571   1.273       .  A
O563        C572   1.275       .  A
O564        C571   1.264       .  A
O565      Zn1534   2.004   1_554  S
O565        C572   1.273       .  A
O566        C573   1.271       .  A
O567        C573   1.271       .  A
C568        C636   1.460       .  S
C569        C812   1.461       .  S
C570        C796   1.455       .  S
C571        C831   1.454       .  S
C572        C623   1.464       .  S
C573        C604   1.464       .  S
Zn574      O1559   2.027   1_455  S
Zn574       O583   2.028       .  S
Zn575      O1068   1.955   1_565  S
Zn575       O580   2.041       .  S
Zn575       O582   2.003       .  S
Zn576       O578   1.912       .  S
Zn576      O1074   1.957   1_455  S
Zn576       O587   1.954       .  S
Zn577       O578   1.960       .  S
Zn577       O585   2.042       .  S
Zn577      O1568   2.010   1_455  S
Zn577       O589   2.016       .  S
O578      Zn1065   1.954   1_455  S
O579      Zn1554   2.027       .  S
O579        C591   1.274       .  A
O580        C592   1.274       .  A
O581        C593   1.265       .  A
O582        C591   1.273       .  A
O583        C593   1.274       .  A
O584      Zn1066   1.963   1_565  S
O584        C592   1.266       .  A
O585        C594   1.275       .  A
O586        C595   1.274       .  A
O587        C594   1.265       .  A
O588      Zn1557   2.010       .  S
O588        C595   1.273       .  A
O589        C596   1.273       .  A
O590        C596   1.274       .  A
C591        C716   1.469       .  S
C592        C908   1.461       .  S
C593        C924   1.455       .  S
C594        C892   1.461       .  S
C595        C732   1.466       .  S
C596        C700   1.463       .  S
C597        C602   1.381       .  A
C597        C598   1.401       .  A
C597        O603   1.318       .  A
C598        C599   1.401       .  A
C598        H609   1.082       .  S
C599        C608   1.357       .  A
C599        C600   1.381       .  A
C600        C601   1.402       .  A
C600        O606   1.319       .  A
C601        C602   1.402       .  A
C601        H610   1.082       .  S
C602        C605   1.359       .  A
O603        C604   1.330       .  A
C604        C605   1.390       .  A
C605        H611   1.083       .  S
O606        C607   1.329       .  A
C607        C608   1.388       .  A
C608        H612   1.082       .  S
C613        C618   1.381       .  A
C613        C614   1.402       .  A
C613        O619   1.315       .  A
C614        C615   1.401       .  A
C614        H625   1.082       .  S
C615        C624   1.362       .  A
C615        C616   1.381       .  A
C616        C617   1.402       .  A
C616        O622   1.316       .  A
C617        C618   1.400       .  A
C617        H626   1.082       .  S
C618        C621   1.362       .  A
O619        C620   1.328       .  A
C620        C621   1.389       .  A
C621        H627   1.082       .  S
O622        C623   1.330       .  A
C623        C624   1.390       .  A
C624        H628   1.082       .  S
C629        C634   1.381       .  A
C629        C630   1.398       .  A
C629        O635   1.313       .  A
C630        C631   1.396       .  A
C630        H641   1.082       .  S
C631        C640   1.357       .  A
C631        C632   1.381       .  A
C632        C633   1.404       .  A
C632        O638   1.317       .  A
C633        C634   1.402       .  A
C633        H642   1.082       .  S
C634        C637   1.363       .  A
O635        C636   1.327       .  A
C636        C637   1.391       .  A
C637        H643   1.083       .  S
O638        C639   1.329       .  A
C639        C640   1.384       .  A
C640        H644   1.082       .  S
C645        C650   1.378       .  A
C645        C646   1.404       .  A
C645        O651   1.313       .  A
C646        C647   1.401       .  A
C646        H657   1.083       .  S
C647        C656   1.366       .  A
C647        C648   1.377       .  A
C648        C649   1.409       .  A
C648        O654   1.317       .  A
C649        C650   1.406       .  A
C649        H658   1.083       .  S
C650        C653   1.373       .  A
O651        C652   1.332       .  A
C652        C653   1.395       .  A
C653        H659   1.082       .  S
O654        C655   1.335       .  A
C655        C656   1.392       .  A
C656        H660   1.082       .  S
C661        C666   1.378       .  A
C661        C662   1.407       .  A
C661        O667   1.318       .  A
C662        C663   1.404       .  A
C662        H673   1.082       .  S
C663        C672   1.370       .  A
C663        C664   1.378       .  A
C664        C665   1.408       .  A
C664        O670   1.317       .  A
C665        C666   1.405       .  A
C665        H674   1.082       .  S
C666        C669   1.370       .  A
O667        C668   1.334       .  A
C668        C669   1.393       .  A
C669        H675   1.082       .  S
O670        C671   1.333       .  A
C671        C672   1.393       .  A
C672       H1656   1.082       .  S
H676       C1652   1.082       .  S
C677        C682   1.379       .  A
C677        C678   1.406       .  A
C677        O683   1.316       .  A
C678        C679   1.403       .  A
C678        H689   1.082       .  S
C679        C688   1.367       .  A
C679        C680   1.379       .  A
C680        C681   1.405       .  A
C680        O686   1.316       .  A
C681        C682   1.403       .  A
C681        H690   1.082       .  S
C682        C685   1.366       .  A
O683        C684   1.332       .  A
C684        C685   1.391       .  A
C685        H691   1.082       .  S
O686        C687   1.333       .  A
C687        C688   1.392       .  A
C688        H692   1.082       .  S
C693        C698   1.381       .  A
C693        C694   1.404       .  A
C693        O699   1.318       .  A
C694        C695   1.402       .  A
C694        H705   1.082       .  S
C695        C704   1.362       .  A
C695        C696   1.382       .  A
C696        C697   1.397       .  A
C696        O702   1.312       .  A
C697        C698   1.397       .  A
C697        H706   1.082       .  S
C698        C701   1.356       .  A
O699        C700   1.331       .  A
C700        C701   1.388       .  A
C701        H707   1.082       .  S
O702        C703   1.326       .  A
C703        C704   1.389       .  A
C704        H708   1.082       .  S
C709        C714   1.380       .  A
C709        C710   1.405       .  A
C709        O715   1.321       .  A
C710        C711   1.404       .  A
C710        H721   1.082       .  S
C711        C720   1.362       .  A
C711        C712   1.381       .  A
C712        C713   1.400       .  A
C712        O718   1.316       .  A
C713        C714   1.400       .  A
C713        H722   1.082       .  S
C714        C717   1.357       .  A
O715        C716   1.332       .  A
C716        C717   1.390       .  A
C717        H723   1.083       .  S
O718        C719   1.328       .  A
C719        C720   1.390       .  A
C720        H724   1.082       .  S
C725        C730   1.381       .  A
C725        C726   1.401       .  A
C725        O731   1.317       .  A
C726        C727   1.400       .  A
C726        H737   1.082       .  S
C727        C736   1.358       .  A
C727        C728   1.381       .  A
C728        C729   1.404       .  A
C728        O734   1.319       .  A
C729        C730   1.403       .  A
C729        H738   1.082       .  S
C730        C733   1.362       .  A
O731        C732   1.329       .  A
C732        C733   1.392       .  A
C733        H739   1.083       .  S
O734        C735   1.330       .  A
C735        C736   1.387       .  A
C736        H740   1.082       .  S
C741        C746   1.381       .  A
C741        C742   1.404       .  A
C741        O747   1.321       .  A
C742        C743   1.404       .  A
C742        H753   1.083       .  S
C743        C752   1.360       .  A
C743        C744   1.380       .  A
C744        C745   1.405       .  A
C744        O750   1.322       .  A
C745        C746   1.405       .  A
C745        H754   1.082       .  S
C746        C749   1.361       .  A
O747        C748   1.330       .  A
C748        C749   1.392       .  A
C749        H755   1.083       .  S
O750        C751   1.331       .  A
C751        C752   1.391       .  A
C752        H756   1.082       .  S
C757        C762   1.379       .  A
C757        C758   1.404       .  A
C757        O763   1.316       .  A
C758        C759   1.403       .  A
C758        H769   1.083       .  S
C759        C768   1.365       .  A
C759        C760   1.379       .  A
C760        C761   1.406       .  A
C760        O766   1.318       .  A
C761        C762   1.403       .  A
C761        H770   1.083       .  S
C762        C765   1.365       .  A
O763        C764   1.332       .  A
C764        C765   1.392       .  A
C765        H771   1.082       .  S
O766        C767   1.333       .  A
C767        C768   1.392       .  A
C768        H772   1.082       .  S
C773        C778   1.380       .  A
C773        C774   1.405       .  A
C773        O779   1.324       .  A
C774        C775   1.406       .  A
C774        H785   1.082       .  S
C775        C784   1.359       .  A
C775        C776   1.380       .  A
C776        C777   1.405       .  A
C776        O782   1.325       .  A
C777        C778   1.406       .  A
C777        H786   1.082       .  S
C778        C781   1.360       .  A
O779        C780   1.332       .  A
C780        C781   1.394       .  A
C781        H787   1.083       .  S
O782        C783   1.332       .  A
C783        C784   1.395       .  A
C784        H788   1.082       .  S
C789        C794   1.382       .  A
C789        C790   1.399       .  A
C789        O795   1.318       .  A
C790        C791   1.400       .  A
C790        H801   1.082       .  S
C791        C800   1.352       .  A
C791        C792   1.382       .  A
C792        C793   1.397       .  A
C792        O798   1.317       .  A
C793        C794   1.398       .  A
C793        H802   1.082       .  S
C794        C797   1.352       .  A
O795        C796   1.328       .  A
C796        C797   1.387       .  A
C797        H803   1.083       .  S
O798        C799   1.327       .  A
C799        C800   1.389       .  A
C800        H804   1.083       .  S
C805        C810   1.380       .  A
C805        C806   1.403       .  A
C805        O811   1.311       .  A
C806        C807   1.398       .  A
C806        H817   1.083       .  S
C807        C816   1.364       .  A
C807        C808   1.379       .  A
C808        C809   1.402       .  A
C808        O814   1.310       .  A
C809        C810   1.398       .  A
C809        H818   1.083       .  S
C810        C813   1.365       .  A
O811        C812   1.330       .  A
C812        C813   1.389       .  A
C813        H819   1.082       .  S
O814        C815   1.329       .  A
C815        C816   1.392       .  A
C816        H820   1.082       .  S
C821        C826   1.380       .  A
C821        C822   1.401       .  A
C821        O827   1.319       .  A
C822        C823   1.403       .  A
C822        H833   1.082       .  S
C823        C832   1.355       .  A
C823        C824   1.383       .  A
C824        C825   1.395       .  A
C824        O830   1.316       .  A
C825        C826   1.396       .  A
C825        H834   1.083       .  S
C826        C829   1.347       .  A
O827        C828   1.330       .  A
C828        C829   1.388       .  A
C829        H835   1.080       .  S
O830        C831   1.325       .  A
C831        C832   1.391       .  A
C832        H836   1.083   1_455  S
C837        C842   1.380       .  A
C837        C838   1.404       .  A
C837        O843   1.316       .  A
C838        C839   1.402       .  A
C838        H849   1.083       .  S
C839        C848   1.365       .  A
C839        C840   1.380       .  A
C840        C841   1.405       .  A
C840        O846   1.317       .  A
C841        C842   1.403       .  A
C841        H850   1.083       .  S
C842        C845   1.367       .  A
O843        C844   1.331       .  A
C844        C845   1.391       .  A
C845        H851   1.083   1_565  S
O846        C847   1.332       .  A
C847        C848   1.390       .  A
C848        H852   1.083       .  S
C853        C858   1.378       .  A
C853        C854   1.407       .  A
C853        O859   1.317       .  A
C854        C855   1.404       .  A
C854        H865   1.083       .  S
C855        C864   1.369       .  A
C855        C856   1.378       .  A
C856        C857   1.407       .  A
C856        O862   1.317       .  A
C857        C858   1.404       .  A
C857        H866   1.083       .  S
C858        C861   1.369       .  A
O859        C860   1.332       .  A
C860        C861   1.394       .  A
C861        H867   1.082       .  S
O862        C863   1.334       .  A
C863        C864   1.394       .  A
C869        C874   1.380       .  A
C869        C870   1.404       .  A
C869        O875   1.323       .  A
C870        C871   1.405       .  A
C870        H881   1.082       .  S
C871        C880   1.359       .  A
C871        C872   1.380       .  A
C872        C873   1.404       .  A
C872        O878   1.323       .  A
C873        C874   1.405       .  A
C873        H882   1.082       .  S
C874        C877   1.358       .  A
O875        C876   1.331       .  A
C876        C877   1.394       .  A
C877        H883   1.082       .  S
O878        C879   1.331       .  A
C879        C880   1.395       .  A
C880       H1864   1.082       .  S
H884       C1860   1.082       .  S
C885        C890   1.382       .  A
C885        C886   1.397       .  A
C885        O891   1.318       .  A
C886        C887   1.399       .  A
C886        H897   1.083       .  S
C887        C896   1.350       .  A
C887        C888   1.380       .  A
C888        C889   1.401       .  A
C888        O894   1.321       .  A
C889        C890   1.403       .  A
C889        H898   1.083       .  S
C890        C893   1.355       .  A
O891        C892   1.327       .  A
C892        C893   1.392       .  A
C893        H899   1.083       .  S
O894        C895   1.331       .  A
C895        C896   1.393       .  A
C896        H900   1.082       .  S
C901        C906   1.382       .  A
C901        C902   1.399       .  A
C901        O907   1.319       .  A
C902        C903   1.400       .  A
C902        H913   1.082       .  S
C903        C912   1.351       .  A
C903        C904   1.381       .  A
C904        C905   1.398       .  A
C904        O910   1.318       .  A
C905        C906   1.400       .  A
C905        H914   1.082       .  S
C906        C909   1.352       .  A
O907        C908   1.329       .  A
C908        C909   1.390       .  A
C909        H915   1.083       .  S
O910        C911   1.328       .  A
C911        C912   1.391       .  A
C912        H916   1.083       .  S
C917        C922   1.381       .  A
C917        C918   1.402       .  A
C917        O923   1.312       .  A
C918        C919   1.399       .  A
C918        H929   1.083       .  S
C919        C928   1.362       .  A
C919        C920   1.379       .  A
C920        C921   1.399       .  A
C920        O926   1.310       .  A
C921        C922   1.396       .  A
C921        H930   1.083       .  S
C922        C925   1.360       .  A
O923        C924   1.330       .  A
C924        C925   1.387       .  A
C925        H931   1.083       .  S
O926        C927   1.329       .  A
C927        C928   1.392       .  A
C928        H932   1.082       .  S
C933        C938   1.381       .  A
C933        C934   1.403       .  A
C933        O939   1.321       .  A
C934        C935   1.404       .  A
C934        H945   1.082       .  S
C935        C944   1.361       .  A
C935        C936   1.380       .  A
C936        C937   1.404       .  A
C936        O942   1.321       .  A
C937        C938   1.404       .  A
C937        H946   1.082       .  S
C938        C941   1.360       .  A
O939        C940   1.330       .  A
C940        C941   1.394       .  A
C941        H947   1.083       .  S
O942        C943   1.331       .  A
C943        C944   1.392       .  A
C944        H948   1.082       .  S
C949        C954   1.380       .  A
C949        C950   1.408       .  A
C949        O955   1.325       .  A
C950        C951   1.409       .  A
C950        H961   1.082       .  S
C951        C960   1.364       .  A
C951        C952   1.380       .  A
C952        C953   1.405       .  A
C952        O958   1.324       .  A
C953        C954   1.405       .  A
C953        H962   1.082       .  S
C954        C957   1.360       .  A
O955        C956   1.333       .  A
C956        C957   1.393       .  A
C957        H963   1.082       .  S
O958        C959   1.332       .  A
C959        C960   1.396       .  A
C960        H964   1.082       .  S
C965        C970   1.380       .  A
C965        C966   1.405       .  A
C965        O971   1.318       .  A
C966        C967   1.403       .  A
C966        H977   1.082       .  S
C967        C976   1.365       .  A
C967        C968   1.380       .  A
C968        C969   1.406       .  A
C968        O974   1.319       .  A
C969        C970   1.405       .  A
C969        H978   1.082       .  S
C970        C973   1.367       .  A
O971        C972   1.332       .  A
C972        C973   1.391       .  A
C973        H979   1.082       .  S
O974        C975   1.332       .  A
C975        C976   1.389       .  A
C981        H982   1.111       .  S
C981        C987   1.557       .  S
C981        C986   1.556       .  S
C981        C985   1.553       .  S
C983        H984   1.108       .  S
C983        C989   1.521       .  S
C983        C988   1.518       .  S
C983        C990   1.520       .  S
C985        C988   1.371       .  D
C985       C1462   1.483       .  S
C986        C989   1.372       .  D
C986       C1449   1.490       .  S
C987        C990   1.374       .  D
C987       C1433   1.479       .  S
C988       C1417   1.473       .  S
C989       C1401   1.472       .  S
C990       C1385   1.480       .  S
C991        H992   1.110       .  S
C991        C997   1.549       .  S
C991        C996   1.562       .  S
C991        C995   1.554       .  S
C993        H994   1.109       .  S
C993        C999   1.518       .  S
C993        C998   1.514       .  S
C993       C1000   1.515       .  S
C995        C998   1.373       .  D
C995       C1337   1.484       .  S
C996        C999   1.380       .  D
C996       C1350   1.488       .  S
C997       C1000   1.370       .  D
C997       C1366   1.485       .  S
C998       C1305   1.467       .  S
C999       C1318   1.485       .  S
C1000      C1289   1.467       .  S
C1001      C1007   1.542       .  S
C1001      C1495   1.546   1_545  S
C1003      H1004   1.111       .  S
C1003      C1498   1.539       .  S
C1003      C1010   1.538   1_565  S
C1005      C1491   1.544       .  S
C1005      C1008   1.376       .  D
C1005      C1353   1.486       .  S
C1006      C1009   1.376       .  D
C1006      C1334   1.486       .  S
C1007      C1010   1.376       .  D
C1007      C1369   1.492       .  S
C1008      C1493   1.538       .  S
C1008      C1465   1.483       .  S
C1009      C1446   1.488       .  S
C1010      C1430   1.482       .  S
C1011      H1012   1.110       .  S
C1011      C1017   1.544       .  S
C1011      C1016   1.558       .  S
C1011      C1015   1.551       .  S
C1013      H1014   1.113       .  S
C1013      C1019   1.515       .  S
C1013      C1018   1.520       .  S
C1013      C1020   1.521       .  S
C1015      C1018   1.373       .  D
C1015      C1273   1.486       .  S
C1016      C1019   1.371       .  D
C1016      C1257   1.486       .  S
C1017      C1020   1.368       .  D
C1017      C1241   1.475       .  S
C1018      C1193   1.466       .  S
C1019      C1225   1.463       .  S
C1020      C1209   1.465       .  S
C1021      H1022   1.113       .  S
C1021      C1027   1.509       .  S
C1021      C1026   1.519       .  S
C1021      C1025   1.525       .  S
C1023      H1024   1.109       .  S
C1023      C1029   1.550       .  S
C1023      C1028   1.552       .  S
C1023      C1030   1.560       .  S
C1025      C1028   1.372       .  D
C1025      C1097   1.467       .  S
C1026      C1029   1.371       .  D
C1026      C1129   1.464       .  S
C1027      C1030   1.375       .  D
C1027      C1110   1.469       .  S
C1028      C1177   1.490       .  S
C1029      C1158   1.486       .  S
C1030      C1142   1.485       .  S
C1031      H1032   1.109       .  S
C1031      C1037   1.544   1_565  S
C1033      H1034   1.111       .  S
C1033      C1040   1.538       .  S
C1035      C1038   1.378       .  D
C1035      C1161   1.486       .  S
C1036      C1039   1.375       .  D
C1036      C1145   1.492       .  S
C1037      C1040   1.377       .  D
C1037      C1174   1.491       .  S
C1038      C1254   1.489       .  S
C1039      C1238   1.475       .  S
C1040      C1270   1.487       .  S
Zn1041     O1045   1.968   1_545  S
Zn1041     O1050   2.022       .  S
Zn1041     O1057   2.019   1_556  S
Zn1042     O1047   2.046       .  S
Zn1042     O1539   1.993   1_556  S
Zn1042     O1053   2.015   1_556  S
Zn1043     O1045   1.916       .  S
Zn1043     O1048   1.959   1_565  S
Zn1043     O1544   1.951       .  S
Zn1044     O1535   1.954       .  S
Zn1044     O1052   2.021       .  S
Zn1044     O1546   2.002   1_556  S
O1045     Zn1534   1.954       .  S
O1046      C1058   1.275       .  A
O1047      C1059   1.273       .  A
O1048      C1060   1.266       .  A
O1049     Zn1532   1.997   1_544  S
O1049      C1058   1.272       .  A
O1050      C1060   1.273       .  A
O1051      C1059   1.264       .  A
O1052      C1061   1.272       .  A
O1053      C1062   1.274       .  A
O1054     Zn1533   1.962       .  S
O1054      C1061   1.266       .  A
O1055      C1062   1.272       .  A
O1056     Zn1534   2.000   1_544  S
O1056      C1063   1.271       .  A
O1057      C1063   1.272       .  A
C1058      C1126   1.462       .  S
C1059      C1302   1.458       .  S
C1060      C1286   1.452       .  S
C1061      C1321   1.455       .  S
C1062      C1113   1.467       .  S
C1063      C1094   1.464       .  S
Zn1064     O1558   1.958       .  S
Zn1064     O1073   2.043       .  S
Zn1064     O1570   2.011       .  S
Zn1065     O1070   2.045       .  S
Zn1065     O1072   1.996       .  S
Zn1065     O1566   2.014       .  S
Zn1066     O1068   1.915       .  S
Zn1066     O1561   1.960   1_545  S
Zn1066     O1077   1.964       .  S
Zn1067     O1068   1.956       .  S
Zn1067     O1075   2.051       .  S
Zn1067     O1079   2.020       .  S
O1068     Zn1554   1.957   1_545  S
O1069      C1081   1.275       .  A
O1070      C1082   1.274       .  A
O1071     Zn1556   1.954       .  S
O1071      C1083   1.264       .  A
O1072      C1081   1.272       .  A
O1073      C1083   1.275       .  A
O1074      C1082   1.265       .  A
O1075      C1084   1.275       .  A
O1076     Zn1555   2.014   1_545  S
O1076      C1085   1.274       .  A
O1077      C1084   1.266       .  A
O1078      C1085   1.273       .  A
O1079      C1086   1.273       .  A
O1080     Zn1554   2.008   1_545  S
O1080      C1086   1.273       .  A
C1081      C1206   1.466       .  S
C1082      C1398   1.462       .  S
C1083      C1414   1.458       .  S
C1084      C1382   1.465       .  S
C1085      C1222   1.463       .  S
C1086      C1190   1.465       .  S
C1087      C1092   1.381       .  A
C1087      C1088   1.400       .  A
C1087      O1093   1.318       .  A
C1088      C1089   1.400       .  A
C1088      H1099   1.082       .  S
C1089      C1098   1.356       .  A
C1089      C1090   1.382       .  A
C1090      C1091   1.401       .  A
C1090      O1096   1.318       .  A
C1091      C1092   1.402       .  A
C1091      H1100   1.082       .  S
C1092      C1095   1.358       .  A
O1093      C1094   1.330       .  A
C1094      C1095   1.390       .  A
C1095      H1101   1.083       .  S
O1096      C1097   1.329       .  A
C1097      C1098   1.387       .  A
C1098      H1102   1.082       .  S
C1103      C1108   1.381       .  A
C1103      C1104   1.401       .  A
C1103      O1109   1.316       .  A
C1104      C1105   1.400       .  A
C1104      H1115   1.082       .  S
C1105      C1114   1.360       .  A
C1105      C1106   1.380       .  A
C1106      C1107   1.404       .  A
C1106      O1112   1.318       .  A
C1107      C1108   1.403       .  A
C1107      H1116   1.082       .  S
C1108      C1111   1.363       .  A
O1109      C1110   1.328       .  A
C1110      C1111   1.390       .  A
C1111      H1117   1.082       .  S
O1112      C1113   1.331       .  A
C1113      C1114   1.390       .  A
C1114      H1118   1.082       .  S
C1119      C1124   1.381       .  A
C1119      C1120   1.397       .  A
C1119      O1125   1.312       .  A
C1120      C1121   1.395       .  A
C1120      H1131   1.082       .  S
C1121      C1130   1.356       .  A
C1121      C1122   1.381       .  A
C1122      C1123   1.405       .  A
C1122      O1128   1.317       .  A
C1123      C1124   1.404       .  A
C1123      H1132   1.082       .  S
C1124      C1127   1.365       .  A
O1125      C1126   1.327       .  A
C1126      C1127   1.392       .  A
C1127      H1133   1.082       .  S
O1128      C1129   1.331       .  A
C1129      C1130   1.384       .  A
C1130      H1134   1.082       .  S
C1135      C1140   1.379       .  A
C1135      C1136   1.401       .  A
C1135      O1141   1.311       .  A
C1136      C1137   1.398       .  A
C1136      H1147   1.083       .  S
C1137      C1146   1.362       .  A
C1137      C1138   1.378       .  A
C1138      C1139   1.409       .  A
C1138      O1144   1.317       .  A
C1139      C1140   1.406       .  A
C1139      H1148   1.083       .  S
C1140      C1143   1.371       .  A
O1141      C1142   1.330       .  A
C1142      C1143   1.395       .  A
C1143      H1149   1.082       .  S
O1144      C1145   1.335       .  A
C1145      C1146   1.391       .  A
C1146      H1150   1.082       .  S
C1151      C1156   1.379       .  A
C1151      C1152   1.407       .  A
C1151      O1157   1.318       .  A
C1152      C1153   1.404       .  A
C1152      H1163   1.082       .  S
C1153      C1162   1.368       .  A
C1153      C1154   1.379       .  A
C1154      C1155   1.405       .  A
C1154      O1160   1.316       .  A
C1155      C1156   1.403       .  A
C1155      H1164   1.082       .  S
C1156      C1159   1.367       .  A
O1157      C1158   1.333       .  A
C1158      C1159   1.391       .  A
C1159      H1165   1.082       .  S
O1160      C1161   1.332       .  A
C1161      C1162   1.392       .  A
C1167      C1172   1.379       .  A
C1167      C1168   1.406       .  A
C1167      O1173   1.317       .  A
C1168      C1169   1.404       .  A
C1168      H1179   1.082       .  S
C1169      C1178   1.368       .  A
C1169      C1170   1.378       .  A
C1170      C1171   1.407       .  A
C1170      O1176   1.318       .  A
C1171      C1172   1.405       .  A
C1171      H1180   1.082       .  S
C1172      C1175   1.368       .  A
O1173      C1174   1.333       .  A
C1174      C1175   1.392       .  A
C1175      H1181   1.082       .  S
O1176      C1177   1.333       .  A
C1177      C1178   1.393       .  A
C1178      H1182   1.082       .  S
C1183      C1188   1.381       .  A
C1183      C1184   1.404       .  A
C1183      O1189   1.318       .  A
C1184      C1185   1.402       .  A
C1184      H1195   1.082       .  S
C1185      C1194   1.363       .  A
C1185      C1186   1.381       .  A
C1186      C1187   1.400       .  A
C1186      O1192   1.314       .  A
C1187      C1188   1.399       .  A
C1187      H1196   1.082       .  S
C1188      C1191   1.358       .  A
O1189      C1190   1.331       .  A
C1190      C1191   1.389       .  A
C1191      H1197   1.082       .  S
O1192      C1193   1.327       .  A
C1193      C1194   1.389       .  A
C1194      H1198   1.082       .  S
C1199      C1204   1.381       .  A
C1199      C1200   1.403       .  A
C1199      O1205   1.320       .  A
C1200      C1201   1.402       .  A
C1200      H1211   1.082       .  S
C1201      C1210   1.359       .  A
C1201      C1202   1.381       .  A
C1202      C1203   1.400       .  A
C1202      O1208   1.317       .  A
C1203      C1204   1.400       .  A
C1203      H1212   1.082       .  S
C1204      C1207   1.356       .  A
O1205      C1206   1.330       .  A
C1206      C1207   1.390       .  A
C1207      H1213   1.083       .  S
O1208      C1209   1.327       .  A
C1209      C1210   1.388       .  A
C1210      H1214   1.081       .  S
C1215      C1220   1.381       .  A
C1215      C1216   1.400       .  A
C1215      O1221   1.314       .  A
C1216      C1217   1.398       .  A
C1216      H1227   1.082       .  S
C1217      C1226   1.358       .  A
C1217      C1218   1.381       .  A
C1218      C1219   1.402       .  A
C1218      O1224   1.316       .  A
C1219      C1220   1.401       .  A
C1219      H1228   1.082       .  S
C1220      C1223   1.361       .  A
O1221      C1222   1.329       .  A
C1222      C1223   1.391       .  A
C1223      H1229   1.082       .  S
O1224      C1225   1.328       .  A
C1225      C1226   1.386       .  A
C1226      H1230   1.082       .  S
C1231      C1236   1.381       .  A
C1231      C1232   1.402       .  A
C1231      O1237   1.320       .  A
C1232      C1233   1.403       .  A
C1232      H1243   1.083       .  S
C1233      C1242   1.359       .  A
C1233      C1234   1.381       .  A
C1234      C1235   1.403       .  A
C1234      O1240   1.321       .  A
C1235      C1236   1.403       .  A
C1235      H1244   1.083       .  S
C1236      C1239   1.359       .  A
O1237      C1238   1.329       .  A
C1238      C1239   1.392       .  A
C1239      H1245   1.083       .  S
O1240      C1241   1.330       .  A
C1241      C1242   1.391       .  A
C1242      H1246   1.083       .  S
C1247      C1252   1.379       .  A
C1247      C1248   1.405       .  A
C1247      O1253   1.317       .  A
C1248      C1249   1.403       .  A
C1248      H1259   1.083       .  S
C1249      C1258   1.366       .  A
C1249      C1250   1.379       .  A
C1250      C1251   1.406       .  A
C1250      O1256   1.317       .  A
C1251      C1252   1.403       .  A
C1251      H1260   1.083       .  S
C1252      C1255   1.365       .  A
O1253      C1254   1.332       .  A
C1254      C1255   1.392       .  A
C1255      H1261   1.082       .  S
O1256      C1257   1.333       .  A
C1257      C1258   1.391       .  A
C1258      H1262   1.082       .  S
C1263      C1268   1.381       .  A
C1263      C1264   1.402       .  A
C1263      O1269   1.322       .  A
C1264      C1265   1.403       .  A
C1264      H1275   1.082       .  S
C1265      C1274   1.357       .  A
C1265      C1266   1.380       .  A
C1266      C1267   1.406       .  A
C1266      O1272   1.325       .  A
C1267      C1268   1.407       .  A
C1267      H1276   1.082       .  S
C1268      C1271   1.361       .  A
O1269      C1270   1.330       .  A
C1270      C1271   1.395       .  A
C1271      H1277   1.083       .  S
O1272      C1273   1.333       .  A
C1273      C1274   1.393       .  A
C1274      H1278   1.082       .  S
C1279      C1284   1.382       .  A
C1279      C1280   1.396       .  A
C1279      O1285   1.316       .  A
C1280      C1281   1.397       .  A
C1280      H1291   1.082       .  S
C1281      C1290   1.350       .  A
C1281      C1282   1.382       .  A
C1282      C1283   1.399       .  A
C1282      O1288   1.318       .  A
C1283      C1284   1.400       .  A
C1283      H1292   1.082       .  S
C1284      C1287   1.354       .  A
O1285      C1286   1.326       .  A
C1286      C1287   1.389       .  A
C1287      H1293   1.083       .  S
O1288      C1289   1.329       .  A
C1289      C1290   1.387       .  A
C1290      H1294   1.083       .  S
C1295      C1300   1.381       .  A
C1295      C1296   1.400       .  A
C1295      O1301   1.309       .  A
C1296      C1297   1.395       .  A
C1296      H1307   1.083       .  S
C1297      C1306   1.361       .  A
C1297      C1298   1.379       .  A
C1298      C1299   1.401       .  A
C1298      O1304   1.308       .  A
C1299      C1300   1.398       .  A
C1299      H1308   1.083       .  S
C1300      C1303   1.365       .  A
O1301      C1302   1.328       .  A
C1302      C1303   1.389       .  A
C1303      H1309   1.082       .  S
O1304      C1305   1.328       .  A
C1305      C1306   1.389       .  A
C1306      H1310   1.082       .  S
C1311      C1316   1.378       .  A
C1311      C1312   1.399       .  A
C1311      O1317   1.317       .  A
C1312      C1313   1.400       .  A
C1312      H1323   1.082       .  S
C1313      C1322   1.353       .  A
C1313      C1314   1.382       .  A
C1314      C1315   1.398       .  A
C1314      O1320   1.317       .  A
C1315      C1316   1.399       .  A
C1315      H1324   1.082       .  S
C1316      C1319   1.350       .  A
O1317      C1318   1.328       .  A
C1318      C1319   1.394       .  A
C1319      H1325   1.080       .  S
O1320      C1321   1.327       .  A
C1321      C1322   1.389       .  A
C1322      H1326   1.083       .  S
C1327      C1332   1.379       .  A
C1327      C1328   1.407       .  A
C1327      O1333   1.317       .  A
C1328      C1329   1.405       .  A
C1328      H1339   1.083       .  S
C1329      C1338   1.368       .  A
C1329      C1330   1.379       .  A
C1330      C1331   1.405       .  A
C1330      O1336   1.317       .  A
C1331      C1332   1.402       .  A
C1331      H1340   1.083       .  S
C1332      C1335   1.367       .  A
O1333      C1334   1.333       .  A
C1334      C1335   1.390       .  A
C1335      H1341   1.083       .  S
O1336      C1337   1.331       .  A
C1337      C1338   1.393       .  A
C1338      H1342   1.083       .  S
C1343      C1348   1.378       .  A
C1343      C1344   1.405       .  A
C1343      O1349   1.315       .  A
C1344      C1345   1.403       .  A
C1344      H1355   1.083       .  S
C1345      C1354   1.367       .  A
C1345      C1346   1.379       .  A
C1346      C1347   1.406       .  A
C1346      O1352   1.316       .  A
C1347      C1348   1.403       .  A
C1347      H1356   1.083       .  S
C1348      C1351   1.367       .  A
O1349      C1350   1.330       .  A
C1350      C1351   1.392       .  A
C1351      H1357   1.082       .  S
O1352      C1353   1.332       .  A
C1353      C1354   1.392       .  A
C1354      H1848   1.083       .  S
H1358      C1844   1.082       .  S
C1359      C1364   1.380       .  A
C1359      C1360   1.403       .  A
C1359      O1365   1.323       .  A
C1360      C1361   1.405       .  A
C1360      H1371   1.082       .  S
C1361      C1370   1.359       .  A
C1361      C1362   1.380       .  A
C1362      C1363   1.404       .  A
C1362      O1368   1.324       .  A
C1363      C1364   1.405       .  A
C1363      H1372   1.082       .  S
C1364      C1367   1.358       .  A
O1365      C1366   1.331       .  A
C1366      C1367   1.395       .  A
C1367      H1373   1.082       .  S
O1368      C1369   1.332       .  A
C1369      C1370   1.395       .  A
C1375      C1380   1.382       .  A
C1375      C1376   1.399       .  A
C1375      O1381   1.320       .  A
C1376      C1377   1.401       .  A
C1376      H1387   1.083       .  S
C1377      C1386   1.352       .  A
C1377      C1378   1.380       .  A
C1378      C1379   1.401       .  A
C1378      O1384   1.321       .  A
C1379      C1380   1.403       .  A
C1379      H1388   1.083       .  S
C1380      C1383   1.356       .  A
O1381      C1382   1.329       .  A
C1382      C1383   1.392       .  A
C1383      H1389   1.083       .  S
O1384      C1385   1.331       .  A
C1385      C1386   1.392       .  A
C1386      H1390   1.082       .  S
C1391      C1396   1.382       .  A
C1391      C1392   1.399       .  A
C1391      O1397   1.319       .  A
C1392      C1393   1.400       .  A
C1392      H1403   1.082       .  S
C1393      C1402   1.351       .  A
C1393      C1394   1.381       .  A
C1394      C1395   1.399       .  A
C1394      O1400   1.319       .  A
C1395      C1396   1.401       .  A
C1395      H1404   1.082       .  S
C1396      C1399   1.353       .  A
O1397      C1398   1.328       .  A
C1398      C1399   1.391       .  A
C1399      H1405   1.083       .  S
O1400      C1401   1.329       .  A
C1401      C1402   1.390       .  A
C1402      H1406   1.083       .  S
C1407      C1412   1.381       .  A
C1407      C1408   1.402       .  A
C1407      O1413   1.313       .  A
C1408      C1409   1.399       .  A
C1408      H1419   1.083       .  S
C1409      C1418   1.362       .  A
C1409      C1410   1.380       .  A
C1410      C1411   1.400       .  A
C1410      O1416   1.311       .  A
C1411      C1412   1.397       .  A
C1411      H1420   1.083       .  S
C1412      C1415   1.361       .  A
O1413      C1414   1.330       .  A
C1414      C1415   1.387       .  A
C1415      H1421   1.083       .  S
O1416      C1417   1.328       .  A
C1417      C1418   1.392       .  A
C1418      H1422   1.082       .  S
C1423      C1428   1.380       .  A
C1423      C1424   1.407       .  A
C1423      O1429   1.324       .  A
C1424      C1425   1.407       .  A
C1424      H1435   1.082       .  S
C1425      C1434   1.364       .  A
C1425      C1426   1.381       .  A
C1426      C1427   1.402       .  A
C1426      O1432   1.320       .  A
C1427      C1428   1.402       .  A
C1427      H1436   1.082       .  S
C1428      C1431   1.358       .  A
O1429      C1430   1.332       .  A
C1430      C1431   1.391       .  A
C1431      H1437   1.082       .  S
O1432      C1433   1.329       .  A
C1433      C1434   1.394       .  A
C1434      H1438   1.082       .  S
C1439      C1444   1.380       .  A
C1439      C1440   1.407       .  A
C1439      O1445   1.325       .  A
C1440      C1441   1.408       .  A
C1440      H1451   1.082       .  S
C1441      C1450   1.365       .  A
C1441      C1442   1.380       .  A
C1442      C1443   1.405       .  A
C1442      O1448   1.324       .  A
C1443      C1444   1.405       .  A
C1443      H1452   1.082       .  S
C1444      C1447   1.361       .  A
O1445      C1446   1.333       .  A
C1446      C1447   1.393       .  A
C1447      H1453   1.083       .  S
O1448      C1449   1.332       .  A
C1449      C1450   1.396       .  A
C1450      H1454   1.082       .  S
C1455      C1460   1.379       .  A
C1455      C1456   1.406       .  A
C1455      O1461   1.319       .  A
C1456      C1457   1.404       .  A
C1456      H1467   1.082       .  S
C1457      C1466   1.367       .  A
C1457      C1458   1.380       .  A
C1458      C1459   1.406       .  A
C1458      O1464   1.319       .  A
C1459      C1460   1.404       .  A
C1459      H1468   1.082       .  S
C1460      C1463   1.366       .  A
O1461      C1462   1.333       .  A
C1462      C1463   1.391       .  A
C1463      H1469   1.082       .  S
O1464      C1465   1.332       .  A
C1465      C1466   1.391       .  A
C1466      H1960   1.082       .  S
H1470      C1956   1.082   1_545  S
C1471      H1472   1.111       .  S
C1471      C1477   1.555       .  S
C1471      C1476   1.555       .  S
C1471      C1475   1.553       .  S
C1473      H1474   1.108       .  S
C1473      C1479   1.518       .  S
C1473      C1478   1.516       .  S
C1473      C1480   1.518       .  S
C1475      C1478   1.371       .  D
C1475      C1952   1.482       .  S
C1476      C1479   1.372       .  D
C1476      C1939   1.491       .  S
C1477      C1480   1.375       .  D
C1477      C1923   1.477       .  S
C1478      C1907   1.472       .  S
C1479      C1891   1.470       .  S
C1480      C1875   1.478       .  S
C1481      H1482   1.110       .  S
C1481      C1487   1.552       .  S
C1481      C1486   1.559       .  S
C1481      C1485   1.557       .  S
C1483      H1484   1.111       .  S
C1483      C1489   1.518       .  S
C1483      C1488   1.513       .  S
C1483      C1490   1.514       .  S
C1485      C1488   1.373       .  D
C1485      C1827   1.478       .  S
C1486      C1489   1.376       .  D
C1486      C1840   1.492       .  S
C1487      C1490   1.372       .  D
C1487      C1856   1.485       .  S
C1488      C1795   1.474       .  S
C1489      C1808   1.474       .  S
C1490      C1779   1.469       .  S
C1491      C1497   1.543       .  S
C1493      H1494   1.111       .  S
C1493      C1500   1.537       .  S
C1495      C1498   1.376       .  D
C1495      C1843   1.493       .  S
C1496      C1499   1.377       .  D
C1496      C1824   1.479       .  S
C1497      C1500   1.375       .  D
C1497      C1859   1.490       .  S
C1498      C1955   1.481       .  S
C1499      C1936   1.492       .  S
C1500      C1920   1.480       .  S
C1501      H1502   1.110       .  S
C1501      C1507   1.549       .  S
C1501      C1506   1.559       .  S
C1501      C1505   1.553       .  S
C1503      H1504   1.113       .  S
C1503      C1509   1.520       .  S
C1503      C1508   1.521       .  S
C1503      C1510   1.521       .  S
C1505      C1508   1.372       .  D
C1505      C1763   1.492       .  S
C1506      C1509   1.374       .  D
C1506      C1747   1.488       .  S
C1507      C1510   1.369       .  D
C1507      C1731   1.479       .  S
C1508      C1683   1.464       .  S
C1509      C1715   1.470       .  S
C1510      C1699   1.470       .  S
C1511      H1512   1.113       .  S
C1511      C1517   1.511       .  S
C1511      C1516   1.521       .  S
C1511      C1515   1.521       .  S
C1513      H1514   1.109       .  S
C1513      C1519   1.551       .  S
C1513      C1518   1.556       .  S
C1513      C1520   1.565       .  S
C1515      C1518   1.371       .  D
C1515      C1587   1.470       .  S
C1516      C1519   1.371       .  D
C1516      C1619   1.462       .  S
C1517      C1520   1.375       .  D
C1517      C1600   1.469       .  S
C1518      C1667   1.486       .  S
C1519      C1648   1.492       .  S
C1520      C1632   1.494       .  S
C1521      H1522   1.109       .  S
C1521      C1527   1.544       .  S
C1523      H1524   1.111       .  S
C1523      C1530   1.536       .  S
C1525      C1528   1.379       .  D
C1525      C1651   1.492       .  S
C1526      C1529   1.376       .  D
C1526      C1635   1.497       .  S
C1527      C1530   1.377       .  D
C1527      C1664   1.486       .  S
C1528      C1744   1.487       .  S
C1529      C1728   1.478       .  S
C1530      C1760   1.490       .  S
Zn1531     O1535   1.965       .  S
Zn1531     O1540   2.024       .  S
Zn1531     O1547   2.016   1_556  S
Zn1532     O1537   2.056       .  S
Zn1532     O1543   2.021   1_556  S
Zn1533     O1535   1.915       .  S
Zn1533     O1538   1.969       .  S
Zn1534     O1542   2.036       .  S
O1536      C1548   1.274       .  A
O1537      C1549   1.275       .  A
O1538      C1550   1.268       .  A
O1539      C1548   1.272       .  A
O1540      C1550   1.273       .  A
O1541      C1549   1.261       .  A
O1542      C1551   1.273       .  A
O1543      C1552   1.274       .  A
O1544      C1551   1.264       .  A
O1545      C1552   1.273       .  A
O1546      C1553   1.271       .  A
O1547      C1553   1.272       .  A
C1548      C1616   1.460       .  S
C1549      C1792   1.459       .  S
C1550      C1776   1.456       .  S
C1551      C1811   1.455       .  S
C1552      C1603   1.466       .  S
C1553      C1584   1.465       .  S
Zn1554     O1563   2.021       .  S
Zn1555     O1560   2.044       .  S
Zn1555     O1562   2.007       .  S
Zn1556     O1558   1.913       .  S
Zn1556     O1567   1.954       .  S
Zn1557     O1558   1.959       .  S
Zn1557     O1565   2.042       .  S
Zn1557     O1569   2.020       .  S
O1559      C1571   1.274       .  A
O1560      C1572   1.275       .  A
O1561      C1573   1.265       .  A
O1562      C1571   1.273       .  A
O1563      C1573   1.273       .  A
O1564      C1572   1.267       .  A
O1565      C1574   1.275       .  A
O1566      C1575   1.273       .  A
O1567      C1574   1.265       .  A
O1568      C1575   1.273       .  A
O1569      C1576   1.273       .  A
O1570      C1576   1.274       .  A
C1571      C1696   1.470       .  S
C1572      C1888   1.463       .  S
C1573      C1904   1.454       .  S
C1574      C1872   1.461       .  S
C1575      C1712   1.466       .  S
C1576      C1680   1.465       .  S
C1577      C1582   1.381       .  A
C1577      C1578   1.400       .  A
C1577      O1583   1.318       .  A
C1578      C1579   1.400       .  A
C1578      H1589   1.082       .  S
C1579      C1588   1.357       .  A
C1579      C1580   1.381       .  A
C1580      C1581   1.403       .  A
C1580      O1586   1.319       .  A
C1581      C1582   1.403       .  A
C1581      H1590   1.082       .  S
C1582      C1585   1.359       .  A
O1583      C1584   1.329       .  A
C1584      C1585   1.391       .  A
C1585      H1591   1.083       .  S
O1586      C1587   1.330       .  A
C1587      C1588   1.387       .  A
C1588      H1592   1.082       .  S
C1593      C1598   1.381       .  A
C1593      C1594   1.402       .  A
C1593      O1599   1.316       .  A
C1594      C1595   1.401       .  A
C1594      H1605   1.082       .  S
C1595      C1604   1.362       .  A
C1595      C1596   1.380       .  A
C1596      C1597   1.403       .  A
C1596      O1602   1.317       .  A
C1597      C1598   1.401       .  A
C1597      H1606   1.082       .  S
C1598      C1601   1.362       .  A
O1599      C1600   1.328       .  A
C1600      C1601   1.389       .  A
C1601      H1607   1.082       .  S
O1602      C1603   1.330       .  A
C1603      C1604   1.391       .  A
C1604      H1608   1.082       .  S
C1609      C1614   1.381       .  A
C1609      C1610   1.398       .  A
C1609      O1615   1.312       .  A
C1610      C1611   1.396       .  A
C1610      H1621   1.082       .  S
C1611      C1620   1.356       .  A
C1611      C1612   1.381       .  A
C1612      C1613   1.404       .  A
C1612      O1618   1.316       .  A
C1613      C1614   1.402       .  A
C1613      H1622   1.082       .  S
C1614      C1617   1.363       .  A
O1615      C1616   1.327       .  A
C1616      C1617   1.391       .  A
C1617      H1623   1.083       .  S
O1618      C1619   1.329       .  A
C1619      C1620   1.384       .  A
C1620      H1624   1.082       .  S
C1625      C1630   1.378       .  A
C1625      C1626   1.404       .  A
C1625      O1631   1.314       .  A
C1626      C1627   1.401       .  A
C1626      H1637   1.083       .  S
C1627      C1636   1.366       .  A
C1627      C1628   1.377       .  A
C1628      C1629   1.410       .  A
C1628      O1634   1.319       .  A
C1629      C1630   1.407       .  A
C1629      H1638   1.083       .  S
C1630      C1633   1.374       .  A
O1631      C1632   1.332       .  A
C1632      C1633   1.396       .  A
C1633      H1639   1.082       .  S
O1634      C1635   1.335       .  A
C1635      C1636   1.392       .  A
C1636      H1640   1.082       .  S
C1641      C1646   1.378       .  A
C1641      C1642   1.407       .  A
C1641      O1647   1.318       .  A
C1642      C1643   1.405       .  A
C1642      H1653   1.082       .  S
C1643      C1652   1.370       .  A
C1643      C1644   1.378       .  A
C1644      C1645   1.408       .  A
C1644      O1650   1.317       .  A
C1645      C1646   1.405       .  A
C1645      H1654   1.082       .  S
C1646      C1649   1.370       .  A
O1647      C1648   1.334       .  A
C1648      C1649   1.393       .  A
C1649      H1655   1.082       .  S
O1650      C1651   1.333       .  A
C1651      C1652   1.393       .  A
C1657      C1662   1.379       .  A
C1657      C1658   1.405       .  A
C1657      O1663   1.316       .  A
C1658      C1659   1.403       .  A
C1658      H1669   1.082       .  S
C1659      C1668   1.367       .  A
C1659      C1660   1.379       .  A
C1660      C1661   1.405       .  A
C1660      O1666   1.316       .  A
C1661      C1662   1.403       .  A
C1661      H1670   1.082       .  S
C1662      C1665   1.366       .  A
O1663      C1664   1.332       .  A
C1664      C1665   1.391       .  A
C1665      H1671   1.082       .  S
O1666      C1667   1.333       .  A
C1667      C1668   1.392       .  A
C1668      H1672   1.082       .  S
C1673      C1678   1.381       .  A
C1673      C1674   1.405       .  A
C1673      O1679   1.319       .  A
C1674      C1675   1.403       .  A
C1674      H1685   1.082       .  S
C1675      C1684   1.363       .  A
C1675      C1676   1.381       .  A
C1676      C1677   1.398       .  A
C1676      O1682   1.313       .  A
C1677      C1678   1.397       .  A
C1677      H1686   1.082       .  S
C1678      C1681   1.356       .  A
O1679      C1680   1.332       .  A
C1680      C1681   1.388       .  A
C1681      H1687   1.082       .  S
O1682      C1683   1.326       .  A
C1683      C1684   1.389       .  A
C1684      H1688   1.082       .  S
C1689      C1694   1.380       .  A
C1689      C1690   1.405       .  A
C1689      O1695   1.321       .  A
C1690      C1691   1.405       .  A
C1690      H1701   1.082       .  S
C1691      C1700   1.363       .  A
C1691      C1692   1.381       .  A
C1692      C1693   1.400       .  A
C1692      O1698   1.317       .  A
C1693      C1694   1.400       .  A
C1693      H1702   1.082       .  S
C1694      C1697   1.358       .  A
O1695      C1696   1.332       .  A
C1696      C1697   1.390       .  A
C1697      H1703   1.083       .  S
O1698      C1699   1.328       .  A
C1699      C1700   1.390       .  A
C1700      H1704   1.082       .  S
C1705      C1710   1.381       .  A
C1705      C1706   1.401       .  A
C1705      O1711   1.317       .  A
C1706      C1707   1.400       .  A
C1706      H1717   1.082       .  S
C1707      C1716   1.358       .  A
C1707      C1708   1.381       .  A
C1708      C1709   1.403       .  A
C1708      O1714   1.319       .  A
C1709      C1710   1.403       .  A
C1709      H1718   1.082       .  S
C1710      C1713   1.361       .  A
O1711      C1712   1.329       .  A
C1712      C1713   1.392       .  A
C1713      H1719   1.083       .  S
O1714      C1715   1.330       .  A
C1715      C1716   1.388       .  A
C1716      H1720   1.082       .  S
C1721      C1726   1.381       .  A
C1721      C1722   1.403       .  A
C1721      O1727   1.321       .  A
C1722      C1723   1.404       .  A
C1722      H1733   1.083       .  S
C1723      C1732   1.360       .  A
C1723      C1724   1.380       .  A
C1724      C1725   1.404       .  A
C1724      O1730   1.322       .  A
C1725      C1726   1.405       .  A
C1725      H1734   1.082       .  S
C1726      C1729   1.361       .  A
O1727      C1728   1.330       .  A
C1728      C1729   1.392       .  A
C1729      H1735   1.083       .  S
O1730      C1731   1.331       .  A
C1731      C1732   1.392       .  A
C1732      H1736   1.082       .  S
C1737      C1742   1.379       .  A
C1737      C1738   1.404       .  A
C1737      O1743   1.316       .  A
C1738      C1739   1.403       .  A
C1738      H1749   1.083       .  S
C1739      C1748   1.365       .  A
C1739      C1740   1.379       .  A
C1740      C1741   1.406       .  A
C1740      O1746   1.318       .  A
C1741      C1742   1.404       .  A
C1741      H1750   1.083       .  S
C1742      C1745   1.366       .  A
O1743      C1744   1.332       .  A
C1744      C1745   1.392       .  A
C1745      H1751   1.083       .  S
O1746      C1747   1.334       .  A
C1747      C1748   1.391       .  A
C1748      H1752   1.082       .  S
C1753      C1758   1.380       .  A
C1753      C1754   1.405       .  A
C1753      O1759   1.324       .  A
C1754      C1755   1.406       .  A
C1754      H1765   1.082       .  S
C1755      C1764   1.360       .  A
C1755      C1756   1.380       .  A
C1756      C1757   1.406       .  A
C1756      O1762   1.325       .  A
C1757      C1758   1.407       .  A
C1757      H1766   1.082       .  S
C1758      C1761   1.361       .  A
O1759      C1760   1.332       .  A
C1760      C1761   1.395       .  A
C1761      H1767   1.083       .  S
O1762      C1763   1.332       .  A
C1763      C1764   1.396       .  A
C1764      H1768   1.082       .  S
C1769      C1774   1.382       .  A
C1769      C1770   1.399       .  A
C1769      O1775   1.319       .  A
C1770      C1771   1.400       .  A
C1770      H1781   1.082       .  S
C1771      C1780   1.352       .  A
C1771      C1772   1.382       .  A
C1772      C1773   1.398       .  A
C1772      O1778   1.318       .  A
C1773      C1774   1.399       .  A
C1773      H1782   1.082       .  S
C1774      C1777   1.352       .  A
O1775      C1776   1.328       .  A
C1776      C1777   1.387       .  A
C1777      H1783   1.083       .  S
O1778      C1779   1.328       .  A
C1779      C1780   1.390       .  A
C1780      H1784   1.083       .  S
C1785      C1790   1.380       .  A
C1785      C1786   1.403       .  A
C1785      O1791   1.310       .  A
C1786      C1787   1.398       .  A
C1786      H1797   1.083       .  S
C1787      C1796   1.364       .  A
C1787      C1788   1.379       .  A
C1788      C1789   1.401       .  A
C1788      O1794   1.308       .  A
C1789      C1790   1.397       .  A
C1789      H1798   1.083       .  S
C1790      C1793   1.365       .  A
O1791      C1792   1.330       .  A
C1792      C1793   1.388       .  A
C1793      H1799   1.082       .  S
O1794      C1795   1.329       .  A
C1795      C1796   1.392       .  A
C1796      H1800   1.082       .  S
C1801      C1806   1.380       .  A
C1801      C1802   1.399       .  A
C1801      O1807   1.319       .  A
C1802      C1803   1.402       .  A
C1802      H1813   1.082       .  S
C1803      C1812   1.354       .  A
C1803      C1804   1.383       .  A
C1804      C1805   1.396       .  A
C1804      O1810   1.317       .  A
C1805      C1806   1.397       .  A
C1805      H1814   1.083       .  S
C1806      C1809   1.347       .  A
O1807      C1808   1.330       .  A
C1808      C1809   1.389       .  A
C1809      H1815   1.080       .  S
O1810      C1811   1.326       .  A
C1811      C1812   1.390       .  A
C1812      H1816   1.083       .  S
C1817      C1822   1.380       .  A
C1817      C1818   1.403       .  A
C1817      O1823   1.315       .  A
C1818      C1819   1.401       .  A
C1818      H1829   1.083       .  S
C1819      C1828   1.364       .  A
C1819      C1820   1.380       .  A
C1820      C1821   1.406       .  A
C1820      O1826   1.318       .  A
C1821      C1822   1.404       .  A
C1821      H1830   1.083       .  S
C1822      C1825   1.367       .  A
O1823      C1824   1.330       .  A
C1824      C1825   1.391       .  A
C1825      H1831   1.083   1_565  S
O1826      C1827   1.332       .  A
C1827      C1828   1.389       .  A
C1828      H1832   1.083       .  S
C1833      C1838   1.378       .  A
C1833      C1834   1.407       .  A
C1833      O1839   1.317       .  A
C1834      C1835   1.404       .  A
C1834      H1845   1.083       .  S
C1835      C1844   1.369       .  A
C1835      C1836   1.379       .  A
C1836      C1837   1.408       .  A
C1836      O1842   1.318       .  A
C1837      C1838   1.405       .  A
C1837      H1846   1.083       .  S
C1838      C1841   1.370       .  A
O1839      C1840   1.332       .  A
C1840      C1841   1.394       .  A
C1841      H1847   1.082       .  S
O1842      C1843   1.334       .  A
C1843      C1844   1.393       .  A
C1849      C1854   1.380       .  A
C1849      C1850   1.405       .  A
C1849      O1855   1.323       .  A
C1850      C1851   1.406       .  A
C1850      H1861   1.082       .  S
C1851      C1860   1.359       .  A
C1851      C1852   1.380       .  A
C1852      C1853   1.404       .  A
C1852      O1858   1.324       .  A
C1853      C1854   1.405       .  A
C1853      H1862   1.082       .  S
C1854      C1857   1.359       .  A
O1855      C1856   1.332       .  A
C1856      C1857   1.394       .  A
C1857      H1863   1.082       .  S
O1858      C1859   1.331       .  A
C1859      C1860   1.396       .  A
C1865      C1870   1.382       .  A
C1865      C1866   1.397       .  A
C1865      O1871   1.318       .  A
C1866      C1867   1.399       .  A
C1866      H1877   1.083       .  S
C1867      C1876   1.350       .  A
C1867      C1868   1.380       .  A
C1868      C1869   1.401       .  A
C1868      O1874   1.320       .  A
C1869      C1870   1.403       .  A
C1869      H1878   1.083       .  S
C1870      C1873   1.355       .  A
O1871      C1872   1.327       .  A
C1872      C1873   1.392       .  A
C1873      H1879   1.083       .  S
O1874      C1875   1.330       .  A
C1875      C1876   1.392       .  A
C1876      H1880   1.082       .  S
C1881      C1886   1.381       .  A
C1881      C1882   1.400       .  A
C1881      O1887   1.320       .  A
C1882      C1883   1.401       .  A
C1882      H1893   1.082       .  S
C1883      C1892   1.352       .  A
C1883      C1884   1.381       .  A
C1884      C1885   1.397       .  A
C1884      O1890   1.317       .  A
C1885      C1886   1.399       .  A
C1885      H1894   1.082       .  S
C1886      C1889   1.352       .  A
O1887      C1888   1.329       .  A
C1888      C1889   1.390       .  A
C1889      H1895   1.083       .  S
O1890      C1891   1.327       .  A
C1891      C1892   1.391       .  A
C1892      H1896   1.083       .  S
C1897      C1902   1.381       .  A
C1897      C1898   1.401       .  A
C1897      O1903   1.312       .  A
C1898      C1899   1.398       .  A
C1898      H1909   1.083       .  S
C1899      C1908   1.360       .  A
C1899      C1900   1.380       .  A
C1900      C1901   1.399       .  A
C1900      O1906   1.310       .  A
C1901      C1902   1.396       .  A
C1901      H1910   1.083       .  S
C1902      C1905   1.359       .  A
O1903      C1904   1.329       .  A
C1904      C1905   1.387       .  A
C1905      H1911   1.083       .  S
O1906      C1907   1.329       .  A
C1907      C1908   1.391       .  A
C1908      H1912   1.082       .  S
C1913      C1918   1.381       .  A
C1913      C1914   1.403       .  A
C1913      O1919   1.321       .  A
C1914      C1915   1.404       .  A
C1914      H1925   1.082       .  S
C1915      C1924   1.360       .  A
C1915      C1916   1.381       .  A
C1916      C1917   1.403       .  A
C1916      O1922   1.320       .  A
C1917      C1918   1.403       .  A
C1917      H1926   1.082       .  S
C1918      C1921   1.359       .  A
O1919      C1920   1.330       .  A
C1920      C1921   1.393       .  A
C1921      H1927   1.083       .  S
O1922      C1923   1.330       .  A
C1923      C1924   1.392       .  A
C1924      H1928   1.082       .  S
C1929      C1934   1.380       .  A
C1929      C1930   1.407       .  A
C1929      O1935   1.325       .  A
C1930      C1931   1.408       .  A
C1930      H1941   1.082       .  S
C1931      C1940   1.363       .  A
C1931      C1932   1.380       .  A
C1932      C1933   1.405       .  A
C1932      O1938   1.324       .  A
C1933      C1934   1.406       .  A
C1933      H1942   1.082       .  S
C1934      C1937   1.361       .  A
O1935      C1936   1.333       .  A
C1936      C1937   1.394       .  A
C1937      H1943   1.082       .  S
O1938      C1939   1.332       .  A
C1939      C1940   1.396       .  A
C1940      H1944   1.082       .  S
C1945      C1950   1.380       .  A
C1945      C1946   1.404       .  A
C1945      O1951   1.318       .  A
C1946      C1947   1.402       .  A
C1946      H1957   1.082       .  S
C1947      C1956   1.365       .  A
C1947      C1948   1.380       .  A
C1948      C1949   1.407       .  A
C1948      O1954   1.319       .  A
C1949      C1950   1.405       .  A
C1949      H1958   1.082       .  S
C1950      C1953   1.368       .  A
O1951      C1952   1.332       .  A
C1952      C1953   1.392       .  A
C1953      H1959   1.082       .  S
O1954      C1955   1.333       .  A
C1955      C1956   1.389       .  A
