geometry optimzed in LAMMPS
_audit_creation_date              2020-12-01 
_audit_creation_method            'lammps2cif' 
_symmetry_space_group_name_H-M    'P1' 
_symmetry_Int_Tables_number       1 
_symmetry_cell_setting            triclinic 
loop_ 
_symmetry_equiv_pos_as_xyz 
  x,y,z 
_cell_length_a                    31.62125496 
_cell_length_b                    31.890912686063235 
_cell_length_c                    31.87971718153069 
_cell_angle_alpha                 90.14974322997645 
_cell_angle_beta                  88.59960062129852 
_cell_angle_gamma                 89.744857536747 
loop_ 
_atom_site_label 
_atom_site_type_symbol 
_atom_site_fract_x 
_atom_site_fract_y 
_atom_site_fract_z 
_atom_site_charge 
N1          N  0.62074581  0.37832954  0.03569359    -0.36400
N2          N  0.71043244  0.37917780  0.01889344    -0.56900
N3          N  0.71213448  0.28943994  0.00297902    -0.36400
N4          N  0.62341156  0.28637263  0.02354849    -0.56900
C5          C  0.63611267  0.41071524  0.05789300     0.27200
C6          C  0.58925949  0.36078631  0.05866110     0.27200
C7          C  0.75314793  0.29849061  0.00931582     0.27200
C8          C  0.70627477  0.24835344  0.01165131     0.27200
C9          C  0.69874503  0.41976397  0.01475118     0.35800
C10         C  0.74651534  0.37385349  0.99604719     0.35800
C11         C  0.58244535  0.29708789  0.01860954     0.35800
C12         C  0.62995335  0.24996571  0.00256537     0.35800
C13         C  0.61654154  0.41173821  0.09729997    -0.21700
C14         C  0.58655000  0.37986637  0.09780081    -0.21700
C15         C  0.77377724  0.26272571  0.02305358    -0.21700
C16         C  0.74407822  0.23091982  0.02443025    -0.21700
C17         C  0.72643036  0.43982926  0.98701107    -0.22700
C18         C  0.75733595  0.41089389  0.97595878    -0.22700
C19         C  0.56335677  0.26809444  0.99258918    -0.22700
C20         C  0.59325837  0.23761703  0.98336798    -0.22700
C21         C  0.66672256  0.43844605  0.04079326    -0.18100
C22         C  0.56246192  0.33008992  0.04187411    -0.18100
C23         C  0.66810262  0.22681190  0.00407470    -0.18100
C24         C  0.77193717  0.33742218  0.99856321    -0.18100
H25         H  0.62242658  0.43373456  0.12238010     0.14800
H26         H  0.56421767  0.37279664  0.12303282     0.14800
H27         H  0.80690775  0.25957139  0.03022207     0.14800
H28         H  0.74988124  0.19859286  0.03285833     0.14800
H29         H  0.72573950  0.47232715  0.97738084     0.13100
H30         H  0.78508199  0.41665046  0.95630281     0.13100
H31         H  0.53100869  0.26798411  0.98233385     0.13100
H32         H  0.58861622  0.20966343  0.96474480     0.13100
H33         H  0.62820211  0.37134855  0.00436824     0.26400
H34         H  0.69049209  0.30913814  0.98856493     0.26400
N35         N  0.45735282  0.37588091  0.01203825    -0.36400
N36         N  0.36917675  0.37375715  0.98695991    -0.56900
N37         N  0.36400845  0.28674381  0.01098859    -0.36400
N38         N  0.45182770  0.28906502  0.03748443    -0.56900
C39         C  0.44703314  0.41735305  0.01103172     0.27200
C40         C  0.49362927  0.37201341  0.03389837     0.27200
C41         C  0.32462932  0.29176953  0.99603826     0.27200
C42         C  0.37166507  0.24508300  0.01338030     0.27200
C43         C  0.37931727  0.41243781  0.97322564     0.35800
C44         C  0.32946910  0.36627500  0.97448439     0.35800
C45         C  0.49101273  0.29635165  0.05168018     0.35800
C46         C  0.44399837  0.24788595  0.04371016     0.35800
C47         C  0.47641105  0.43964224  0.03326530    -0.21700
C48         C  0.50608285  0.41163871  0.04636548    -0.21700
C49         C  0.30623274  0.25289546  0.99050912    -0.21700
C50         C  0.33624300  0.22343444  0.00043113    -0.21700
C51         C  0.34687099  0.42837108  0.94927255    -0.22700
C52         C  0.31472902  0.39961455  0.95123246    -0.22700
C53         C  0.50689196  0.26022870  0.06983910    -0.22700
C54         C  0.47746809  0.22934956  0.06402378    -0.22700
C55         C  0.41303570  0.43618925  0.98913940    -0.18100
C56         C  0.51445820  0.33355150  0.04407047    -0.18100
C57         C  0.40917136  0.22579868  0.02766153    -0.18100
C58         C  0.30578473  0.33028043  0.98480941    -0.18100
H59         H  0.47651029  0.47283573  0.04002728     0.14800
H60         H  0.53178002  0.42073420  0.06526781     0.14800
H61         H  0.27522668  0.24620669  0.97865300     0.14800
H62         H  0.33215716  0.18982191  0.99852877     0.14800
H63         H  0.34527019  0.45878147  0.93439369     0.13100
H64         H  0.28404611  0.40285188  0.93723727     0.13100
H65         H  0.53747885  0.25603788  0.08380036     0.13100
H66         H  0.48079596  0.19674419  0.07274847     0.13100
H67         H  0.44284336  0.35204012  0.99539133     0.26400
H68         H  0.38339606  0.31056311  0.02138510     0.26400
N69         N  0.62340657  0.54267354  0.01388920    -0.36400
N70         N  0.70889496  0.54940175  0.04313893    -0.56900
N71         N  0.71208218  0.63587815  0.01110521    -0.36400
N72         N  0.62572744  0.63134100  0.98932465    -0.56900
C73         C  0.62657354  0.50815041  0.03853991     0.27200
C74         C  0.58201756  0.55429272  0.01403796     0.27200
C75         C  0.75048240  0.63230357  0.02812965     0.27200
C76         C  0.70322049  0.67742161  0.00807046     0.27200
C77         C  0.70303010  0.50828984  0.05224889     0.35800
C78         C  0.75107034  0.55619224  0.04506121     0.35800
C79         C  0.58896708  0.61958860  0.97277821     0.35800
C80         C  0.63458635  0.66967922  0.97391049     0.35800
C81         C  0.58679388  0.49846373  0.05482013    -0.21700
C82         C  0.55897932  0.52760572  0.03980826    -0.21700
C83         C  0.76680779  0.67187150  0.03538817    -0.21700
C84         C  0.73648058  0.70034959  0.02375603    -0.21700
C85         C  0.74096846  0.49036053  0.06411116    -0.22700
C86         C  0.77152011  0.52031047  0.05835617    -0.22700
C87         C  0.57500520  0.65007526  0.94524621    -0.22700
C88         C  0.60365027  0.68233458  0.94666312    -0.22700
C89         C  0.66474207  0.48593824  0.04639835    -0.18100
C90         C  0.56414551  0.58707013  0.98992012    -0.18100
C91         C  0.66739881  0.69492466  0.98867772    -0.18100
C92         C  0.77188334  0.59409702  0.03459503    -0.18100
H93         H  0.57809994  0.47529573  0.07757993     0.14800
H94         H  0.52560034  0.52941796  0.04781015     0.14800
H95         H  0.79711147  0.67972944  0.04816132     0.14800
H96         H  0.73933188  0.73410134  0.02549783     0.14800
H97         H  0.74646366  0.45838769  0.07395965     0.13100
H98         H  0.80502324  0.51613792  0.06329171     0.13100
H99         H  0.54562388  0.65046007  0.92852529     0.13100
H100        H  0.60127082  0.71215960  0.93075023     0.13100
H101        H  0.64747134  0.55505564  0.99487878     0.26400
H102        H  0.69592629  0.61113296  0.99799508     0.26400
N103        N  0.45463253  0.54585135  0.98438109    -0.36400
N104        N  0.36483464  0.54486581  0.98815250    -0.56900
N105        N  0.36486306  0.63597334  0.99033864    -0.36400
N106        N  0.45571892  0.63621817  0.98631602    -0.56900
C107        C  0.44610458  0.50649509  0.97147203     0.27200
C108        C  0.49455472  0.55476600  0.97183122     0.27200
C109        C  0.32431722  0.62769455  0.98101435     0.27200
C110        C  0.37263105  0.67627623  0.97972568     0.27200
C111        C  0.37383095  0.50533417  0.00024531     0.35800
C112        C  0.32526096  0.55344923  0.00236024     0.35800
C113        C  0.49511466  0.62692440  0.99878048     0.35800
C114        C  0.44757705  0.67603875  0.99855602     0.35800
C115        C  0.48070204  0.49052970  0.94898796    -0.21700
C116        C  0.51155155  0.52109257  0.94943568    -0.21700
C117        C  0.30596960  0.66318461  0.96395042    -0.21700
C118        C  0.33655766  0.69396061  0.96319081    -0.21700
C119        C  0.33990066  0.48891179  0.02311269    -0.22700
C120        C  0.30874446  0.51927016  0.02379215    -0.22700
C121        C  0.51184547  0.66093282  0.01990096    -0.22700
C122        C  0.48195183  0.69248074  0.01891089    -0.22700
C123        C  0.41071514  0.48345666  0.98634502    -0.18100
C124        C  0.51699479  0.58981588  0.98646494    -0.18100
C125        C  0.41029530  0.69790737  0.98865194    -0.18100
C126        C  0.30297752  0.59020952  0.99188635    -0.18100
H127        H  0.48425683  0.45928202  0.93602112     0.14800
H128        H  0.54347623  0.51807806  0.93673402     0.14800
H129        H  0.27363460  0.66687237  0.95416693     0.14800
H130        H  0.33240198  0.72593426  0.95270276     0.14800
H131        H  0.33727997  0.45790874  0.03661563     0.13100
H132        H  0.27741190  0.51638640  0.03788812     0.13100
H133        H  0.54272937  0.66318655  0.03352604     0.13100
H134        H  0.48501935  0.72374238  0.03174471     0.13100
H135        H  0.43718645  0.56280282  0.00687962     0.26400
H136        H  0.38426709  0.61688629  0.00809286     0.26400
N137        N  0.61013278  0.97917443  0.58076792    -0.36400
N138        N  0.69975812  0.95437153  0.58119186    -0.56900
N139        N  0.69988493  0.97186779  0.67040527    -0.36400
N140        N  0.60907368  0.99111014  0.67060489    -0.56900
C141        C  0.61599741  0.95669742  0.54489086     0.27200
C142        C  0.56898282  0.97470830  0.59322472     0.27200
C143        C  0.74063616  0.95937220  0.66498339     0.27200
C144        C  0.69160126  0.97383851  0.71223854     0.27200
C145        C  0.69366515  0.95091560  0.53946491     0.35800
C146        C  0.74179206  0.94961682  0.58697818     0.35800
C147        C  0.57167142  0.00925682  0.66177426     0.35800
C148        C  0.61887476  0.00352884  0.70958635     0.35800
C149        C  0.57861273  0.93650230  0.53549732    -0.21700
C150        C  0.54943874  0.94703023  0.56639934    -0.21700
C151        C  0.75871636  0.95481976  0.70395822    -0.21700
C152        C  0.72756974  0.96265578  0.73361695    -0.21700
C153        C  0.73164716  0.94079011  0.51908293    -0.22700
C154        C  0.76215178  0.94068720  0.54899651    -0.22700
C155        C  0.55864744  0.03483573  0.69511079    -0.22700
C156        C  0.58793512  0.03003223  0.72587530    -0.22700
C157        C  0.65395225  0.95574881  0.52004740    -0.18100
C158        C  0.54830134  0.99807445  0.62602786    -0.18100
C159        C  0.65362366  0.98841283  0.73182220    -0.18100
C160        C  0.76230324  0.95295216  0.62596634    -0.18100
H161        H  0.57261903  0.91500522  0.51023859     0.14800
H162        H  0.51728633  0.93564772  0.56855043     0.14800
H163        H  0.79099478  0.94675620  0.71088263     0.14800
H164        H  0.73173051  0.96171449  0.76717492     0.14800
H165        H  0.73700781  0.93377586  0.48616459     0.13100
H166        H  0.79545970  0.93425454  0.54342951     0.13100
H167        H  0.53125917  0.05501525  0.69786606     0.13100
H168        H  0.58696264  0.04479564  0.75650031     0.13100
H169        H  0.63166814  0.00034368  0.59307457     0.26400
H170        H  0.67995275  0.98162109  0.64711419     0.26400
N171        N  0.44293702  0.99143478  0.57952398    -0.36400
N172        N  0.35473624  0.97161768  0.58601996    -0.56900
N173        N  0.35769051  0.97514370  0.67885123    -0.36400
N174        N  0.46759219  0.99447860  0.69130492    -0.56900
C175        C  0.43313540  0.99394891  0.53873566     0.27200
C176        C  0.48117012  0.00913880  0.58408647     0.27200
C177        C  0.31556079  0.97059686  0.67430099     0.27200
C178        C  0.36484674  0.97977161  0.72026545     0.27200
C179        C  0.36324549  0.95916067  0.54600308     0.35800
C180        C  0.31694334  0.95493181  0.59729381     0.35800
C181        C  0.47527355  0.01933553  0.65754705     0.35800
C182        C  0.43346789  0.01194262  0.71146331     0.35800
C183        C  0.46562259  0.01472622  0.51712898    -0.21700
C184        C  0.49639654  0.02386770  0.54591529    -0.21700
C185        C  0.29576044  0.97274523  0.71372601    -0.21700
C186        C  0.32708759  0.97696990  0.74286469    -0.21700
C187        C  0.33096648  0.93354954  0.53232102    -0.22700
C188        C  0.30118369  0.93184077  0.56437077    -0.22700
C189        C  0.44647187  0.05208454  0.65645444    -0.22700
C190        C  0.42020589  0.04750324  0.69057732    -0.22700
C191        C  0.39788738  0.97383819  0.52078241    -0.18100
C192        C  0.50163081  0.00881074  0.62283076    -0.18100
C193        C  0.40497505  0.98892296  0.73654530    -0.18100
C194        C  0.29509405  0.96187953  0.63600845    -0.18100
H195        H  0.46759789  0.02155333  0.48391581     0.14800
H196        H  0.52636439  0.03913539  0.53957881     0.14800
H197        H  0.26228739  0.97067168  0.72110514     0.14800
H198        H  0.32230673  0.97971870  0.77648562     0.14800
H199        H  0.32854362  0.91836387  0.50209713     0.13100
H200        H  0.27157152  0.91496605  0.56384212     0.13100
H201        H  0.44316176  0.07508011  0.63180995     0.13100
H202        H  0.39158353  0.06542666  0.69689644     0.13100
H203        H  0.42782035  0.97377355  0.60246835     0.26400
H204        H  0.38103894  0.97440246  0.65567253     0.26400
N205        N  0.44672115  0.95480068  0.41419944    -0.36400
N206        N  0.44796270  0.94179581  0.32490401    -0.56900
N207        N  0.35615929  0.94999454  0.32479835    -0.36400
N208        N  0.35384022  0.95984634  0.41341357    -0.56900
C209        C  0.48410278  0.93436746  0.40735048     0.27200
C210        C  0.43379958  0.94767148  0.45421255     0.27200
C211        C  0.36632131  0.93472485  0.28631237     0.27200
C212        C  0.31580035  0.93874228  0.33413417     0.27200
C213        C  0.48771444  0.95336786  0.33391019     0.35800
C214        C  0.44022883  0.95646328  0.28622064     0.35800
C215        C  0.36234945  0.97800517  0.45047881     0.35800
C216        C  0.31367987  0.97040014  0.40423642     0.35800
C217        C  0.49430161  0.91308828  0.44378846    -0.21700
C218        C  0.46294289  0.92207688  0.47344880    -0.21700
C219        C  0.33222928  0.91281736  0.27091225    -0.21700
C220        C  0.30033779  0.91509213  0.30131327    -0.21700
C221        C  0.50472376  0.97750332  0.30158927    -0.22700
C222        C  0.47450932  0.97925567  0.27106536    -0.22700
C223        C  0.32764806  0.00143920  0.46451246    -0.22700
C224        C  0.29650984  0.99609209  0.43539008    -0.22700
C225        C  0.50873998  0.93759044  0.36924883    -0.18100
C226        C  0.39814244  0.96709566  0.47405097    -0.18100
C227        C  0.29218930  0.95346635  0.36969130    -0.18100
C228        C  0.40409756  0.94491878  0.26394223    -0.18100
H229        H  0.52080442  0.89265206  0.44913224     0.14800
H230        H  0.46163014  0.91089525  0.50547800     0.14800
H231        H  0.33024860  0.89764352  0.24062387     0.14800
H232        H  0.26901389  0.90190009  0.29894984     0.14800
H233        H  0.53606755  0.99095808  0.29959436     0.13100
H234        H  0.47789347  0.99414948  0.24071065     0.13100
H235        H  0.32431984  0.01868788  0.49369323     0.13100
H236        H  0.26474833  0.00884432  0.43732834     0.13100
H237        H  0.43262164  0.97624387  0.39410469     0.26400
H238        H  0.37406430  0.97177835  0.34096797     0.26400
N239        N  0.59685758  0.95309901  0.42152597    -0.36400
N240        N  0.61735934  0.92594140  0.31974214    -0.56900
N241        N  0.70027500  0.96299067  0.31871194    -0.36400
N242        N  0.69277839  0.97537107  0.40941587    -0.56900
C243        C  0.58018352  0.92045671  0.40092993     0.27200
C244        C  0.62340099  0.93664295  0.44981214     0.27200
C245        C  0.69960947  0.94675119  0.27937906     0.27200
C246        C  0.74137911  0.96911036  0.32820224     0.27200
C247        C  0.57623480  0.91609346  0.32663076     0.35800
C248        C  0.62475471  0.92327075  0.27794851     0.35800
C249        C  0.68112175  0.98499978  0.44945940     0.35800
C250        C  0.72910769  0.99610025  0.40088468     0.35800
C251        C  0.59783377  0.88317792  0.41460089    -0.21700
C252        C  0.62438044  0.89340235  0.44675499    -0.21700
C253        C  0.74047690  0.94364232  0.26315311    -0.21700
C254        C  0.76687476  0.95665587  0.29423806    -0.21700
C255        C  0.55845664  0.90318678  0.28957127    -0.22700
C256        C  0.58901168  0.90850406  0.25843291    -0.22700
C257        C  0.70848096  0.01449196  0.46547134    -0.22700
C258        C  0.73944774  0.02083430  0.43494365    -0.22700
C259        C  0.55511347  0.92407065  0.36551272    -0.18100
C260        C  0.65182031  0.96036892  0.47280164    -0.18100
C261        C  0.75629020  0.98712162  0.36598667    -0.18100
C262        C  0.66320248  0.93464593  0.25746491    -0.18100
H263        H  0.59235400  0.85210177  0.40220250     0.14800
H264        H  0.64441043  0.87207162  0.46372105     0.14800
H265        H  0.75033883  0.93184063  0.23257425     0.14800
H266        H  0.80102072  0.95698608  0.29168987     0.14800
H267        H  0.52655034  0.89218981  0.28545303     0.13100
H268        H  0.58524003  0.90255967  0.22529692     0.13100
H269        H  0.70818349  0.02730131  0.49694557     0.13100
H270        H  0.76747957  0.03981753  0.43813541     0.13100
H271        H  0.59181032  0.98489648  0.41542068     0.26400
H272        H  0.67400525  0.97260027  0.33660124     0.26400
N273        N  0.05468361  0.53156231  0.56435477    -0.36400
N274        N  0.05781877  0.64272139  0.58745312    -0.56900
N275        N  0.06137297  0.63894738  0.67841426    -0.36400
N276        N  0.06564414  0.54793607  0.67603442    -0.56900
C277        C  0.07626911  0.56458779  0.54780510     0.27200
C278        C  0.08000406  0.51515847  0.59403355     0.27200
C279        C  0.04995089  0.67955127  0.67245802     0.27200
C280        C  0.05201441  0.62941612  0.71906717     0.27200
C281        C  0.06324519  0.63763410  0.54556398     0.35800
C282        C  0.06377740  0.68375731  0.59541331     0.35800
C283        C  0.07259462  0.50684623  0.66790323     0.35800
C284        C  0.07073862  0.55333440  0.71750112     0.35800
C285        C  0.11562779  0.56772299  0.56576321    -0.21700
C286        C  0.11794728  0.53666691  0.59485538    -0.21700
C287        C  0.03353709  0.69600630  0.70972896    -0.21700
C288        C  0.03469042  0.66442859  0.73902140    -0.21700
C289        C  0.07493410  0.67506250  0.52698963    -0.22700
C290        C  0.07439396  0.70468632  0.55852456    -0.22700
C291        C  0.08414324  0.48616527  0.70405039    -0.22700
C292        C  0.08251225  0.51566479  0.73571235    -0.22700
C293        C  0.05862271  0.59830840  0.52564479    -0.18100
C294        C  0.06675323  0.48939181  0.62760598    -0.18100
C295        C  0.06064839  0.59076341  0.73938969    -0.18100
C296        C  0.05580828  0.70280202  0.63485463    -0.18100
H297        H  0.13865157  0.59236412  0.56080437     0.14800
H298        H  0.14311050  0.53245590  0.61691505     0.14800
H299        H  0.02210922  0.72761751  0.71533318     0.14800
H300        H  0.02434889  0.66712910  0.77153390     0.14800
H301        H  0.08360267  0.67998369  0.49441978     0.13100
H302        H  0.08111403  0.73773653  0.55480529     0.13100
H303        H  0.09240313  0.45339179  0.70733273     0.13100
H304        H  0.08854986  0.50989866  0.76847421     0.13100
H305        H  0.02282067  0.52467810  0.56014159     0.26400
H306        H  0.07820972  0.62019799  0.65706156     0.26400
N307        N  0.04595452  0.38319365  0.57579680    -0.36400
N308        N  0.03806243  0.38354377  0.66514843    -0.56900
N309        N  0.02852083  0.29339915  0.66692383    -0.36400
N310        N  0.03795396  0.29186172  0.57749880    -0.56900
C311        C  0.06455944  0.42002191  0.58572846     0.27200
C312        C  0.06232140  0.37022381  0.53850524     0.27200
C313        C  0.03731967  0.30238604  0.70714027     0.27200
C314        C  0.03897967  0.25283432  0.65994853     0.27200
C315        C  0.03020285  0.42380337  0.65477900     0.35800
C316        C  0.01976296  0.37717489  0.70322716     0.35800
C317        C  0.02924264  0.30079088  0.53732238     0.35800
C318        C  0.02301221  0.25297090  0.58512683     0.35800
C319        C  0.09409876  0.42997789  0.55429703    -0.21700
C320        C  0.09214481  0.39881720  0.52421997    -0.21700
C321        C  0.05382685  0.26707193  0.72622165    -0.21700
C322        C  0.05484547  0.23563810  0.69629715    -0.21700
C323        C  0.00473350  0.44252428  0.68567050    -0.22700
C324        C  0.99903587  0.41315685  0.71696439    -0.22700
C325        C  0.00713361  0.26788059  0.51968404    -0.22700
C326        C  0.00405079  0.23707440  0.54983224    -0.22700
C327        C  0.05278188  0.44428979  0.62179172    -0.18100
C328        C  0.04702052  0.33548852  0.51583330    -0.18100
C329        C  0.03076265  0.23090257  0.62244951    -0.18100
C330        C  0.02664290  0.34074891  0.72707260    -0.18100
H331        H  0.11533509  0.45632514  0.55262463     0.14800
H332        H  0.11045436  0.39740978  0.49511178     0.14800
H333        H  0.06320957  0.26400395  0.75848995     0.14800
H334        H  0.06528869  0.20366575  0.70098478     0.14800
H335        H  0.99375916  0.47470812  0.68676407     0.13100
H336        H  0.98253312  0.41795091  0.74674455     0.13100
H337        H  0.99617920  0.26544582  0.48789083     0.13100
H338        H  0.99018088  0.20637213  0.54606081     0.13100
H339        H  0.01991270  0.36973005  0.59122810     0.26400
H340        H  0.01138544  0.31256724  0.64695890     0.26400
N341        N  0.03505341  0.55036458  0.41827250    -0.36400
N342        N  0.02839894  0.64054554  0.42214060    -0.56900
N343        N  0.01681281  0.64549956  0.33259464    -0.36400
N344        N  0.02469760  0.55598107  0.32815347    -0.56900
C345        C  0.05506326  0.55969729  0.45427318     0.27200
C346        C  0.05157821  0.51414039  0.40287635     0.27200
C347        C  0.02691827  0.68524643  0.34281513     0.34400
C348        C  0.02822535  0.63945444  0.29187392     0.27200
C349        C  0.02116892  0.62828293  0.46221963     0.35800
C350        C  0.01056132  0.67886504  0.41796671     0.35800
C351        C  0.01684687  0.51503501  0.33510253     0.35800
C352        C  0.00981943  0.56496855  0.28991683     0.35800
C353        C  0.08559117  0.52902739  0.46109697    -0.21700
C354        C  0.08292355  0.50010630  0.42898255    -0.21700
C355        C  0.04507057  0.70501640  0.30818257    -0.21700
C356        C  0.04632536  0.67584390  0.27600107    -0.21700
C357        C  0.99622603  0.65817740  0.48298384    -0.22700
C358        C  0.99045794  0.69076966  0.45516081    -0.22700
C359        C  0.99487352  0.49826797  0.30189699    -0.22700
C360        C  0.99111477  0.52986867  0.27280277    -0.22700
C361        C  0.04395300  0.59459618  0.48055704    -0.18100
C362        C  0.03608336  0.49240477  0.36759203    -0.18100
C363        C  0.01890835  0.60279323  0.26876005    -0.18100
C364        C  0.01689492  0.70405976  0.38198184    -0.18100
H365        H  0.10839951  0.52730355  0.48561825     0.14800
H366        H  0.10206301  0.47207208  0.42514302     0.14800
H367        H  0.05600252  0.73708233  0.30627793     0.14800
H368        H  0.05824248  0.68113657  0.24436228     0.14800
H369        H  0.98557517  0.65776252  0.51549770     0.13100
H370        H  0.97436167  0.72015654  0.46176617     0.13100
H371        H  0.98489688  0.46612302  0.29789579     0.13100
H372        H  0.97753542  0.52704315  0.24209204     0.13100
H373        H  0.00844891  0.56565326  0.40685193     0.26400
H374        H  0.99863532  0.62523714  0.35121408     0.26400
N375        N  0.04763185  0.38302365  0.40838191    -0.36400
N376        N  0.05262964  0.29349391  0.40615712    -0.56900
N377        N  0.05456225  0.29453793  0.31592732    -0.36400
N378        N  0.04902921  0.38512007  0.31822913    -0.56900
C379        C  0.03473839  0.37199017  0.44749067     0.27200
C380        C  0.03055081  0.42095671  0.40034639     0.27200
C381        C  0.04179178  0.25482348  0.32382513     0.27200
C382        C  0.04397176  0.30380053  0.27623596     0.27200
C383        C  0.06432392  0.30096997  0.44581982     0.35800
C384        C  0.06335427  0.25349504  0.39730341     0.35800
C385        C  0.05644614  0.42580175  0.32736948     0.35800
C386        C  0.06191767  0.37891812  0.27798921     0.35800
C387        C  0.00838948  0.40290823  0.46437236    -0.21700
C388        C  0.00563898  0.43386671  0.43447374    -0.21700
C389        C  0.02276228  0.23857578  0.28861500    -0.21700
C390        C  0.02432644  0.26952635  0.25840344    -0.21700
C391        C  0.08447368  0.26591697  0.46177977    -0.22700
C392        C  0.08290062  0.23534875  0.43119951    -0.22700
C393        C  0.07537489  0.44536572  0.29296460    -0.22700
C394        C  0.07822173  0.41573005  0.26139394    -0.22700
C395        C  0.04963709  0.33625149  0.46883302    -0.18100
C396        C  0.04129560  0.44549141  0.36479651    -0.18100
C397        C  0.05448104  0.34156408  0.25543614    -0.18100
C398        C  0.04998352  0.23252932  0.36110708    -0.18100
H399        H  0.99336043  0.40348801  0.49523254     0.14800
H400        H  0.98821680  0.46300549  0.43792828     0.14800
H401        H  0.00975881  0.20749873  0.28484801     0.14800
H402        H  0.01271028  0.26699235  0.22684705     0.14800
H403        H  0.09644985  0.26188314  0.49303056     0.13100
H404        H  0.09370631  0.20324668  0.43394876     0.13100
H405        H  0.08469411  0.47788068  0.29035083     0.13100
H406        H  0.09013307  0.42082924  0.22970837     0.13100
H407        H  0.07129542  0.36808918  0.39049451     0.26400
H408        H  0.07368697  0.31282159  0.33478627     0.26400
O409        O  0.10435219  0.37727684  0.98901765    -0.72700
O410        O  0.97654510  0.38203511  0.99435296    -0.73700
O411        O  0.04169095  0.37884345  0.05484303    -0.62300
O412        O  0.03923962  0.38124644  0.92885142    -0.70700
O413        O  0.03499233  0.31187337  0.92746262    -0.70300
O414        O  0.04220831  0.30928164  0.05360145    -0.61500
O415        O  0.97511995  0.31256869  0.99437804    -0.74000
O416        O  0.10180419  0.30782895  0.98499232    -0.72800
Cu417      Cu  0.04056302  0.38229059  0.99188231     1.04600
Cu418      Cu  0.03844737  0.30799216  0.99018809     1.04300
C419        C  0.12305928  0.34174078  0.98546781     0.93500
C420        C  0.95564447  0.34777992  0.99462951     0.92600
C421        C  0.04278464  0.34381123  0.07412429     0.84800
C422        C  0.03621624  0.34701530  0.90827611     0.91000
O423        O  0.09991758  0.55636364  0.00260967    -0.72700
O424        O  0.97267246  0.55737896  0.00629722    -0.73700
O425        O  0.03651425  0.55446894  0.94113820    -0.62300
O426        O  0.03637672  0.55938791  0.06772211    -0.70700
O427        O  0.03530026  0.62883656  0.06544733    -0.70300
O428        O  0.03869886  0.62401105  0.93936029    -0.61500
O429        O  0.97334402  0.62697494  0.00358465    -0.74000
O430        O  0.09996221  0.62592167  0.00226541    -0.72800
Cu431      Cu  0.03630458  0.55442134  0.00444583     1.04600
Cu432      Cu  0.03675798  0.62879911  0.00241967     1.04300
C433        C  0.11997230  0.59108119  0.00224185     0.93500
C434        C  0.95311698  0.59252234  0.00681283     0.92600
C435        C  0.03880308  0.58864887  0.92038062     0.84800
C436        C  0.03549209  0.59485827  0.08658706     0.91000
O437        O  0.08599680  0.96021840  0.33433079    -0.72700
O438        O  0.95896117  0.97427430  0.33967615    -0.73700
O439        O  0.02928980  0.02972770  0.33352646    -0.62300
O440        O  0.01572444  0.90405439  0.34096867    -0.70700
O441        O  0.01952464  0.90783356  0.41024921    -0.70300
O442        O  0.02862967  0.03368607  0.40298221    -0.61500
O443        O  0.96007435  0.97584626  0.40913531    -0.74000
O444        O  0.08776135  0.96544697  0.40347504    -0.72800
Cu445      Cu  0.02237275  0.96687485  0.33473227     1.04600
Cu446      Cu  0.02400117  0.97082829  0.40885473     1.04300
C447        C  0.10716789  0.96117525  0.36797599     0.93500
C448        C  0.93939189  0.97716750  0.37516186     0.92600
C449        C  0.03115290  0.05152014  0.36714351     0.84800
C450        C  0.01606161  0.88608945  0.37679966     0.91000
O451        O  0.03115434  0.90165322  0.59980773    -0.72700
O452        O  0.02873822  0.02780391  0.59547501    -0.73700
O453        O  0.09317673  0.96587522  0.59799097    -0.62300
O454        O  0.96643642  0.96388448  0.59685673    -0.70700
O455        O  0.96346896  0.96369566  0.66651352    -0.70300
O456        O  0.09092335  0.96893555  0.66759757    -0.61500
O457        O  0.02428928  0.02993631  0.66495411    -0.74000
O458        O  0.03084005  0.90380363  0.66945713    -0.72800
Cu459      Cu  0.02987235  0.96473405  0.59515939     1.04600
Cu460      Cu  0.02720159  0.96679893  0.66961270     1.04300
C461        C  0.03230273  0.88295188  0.63519137     0.93500
C462        C  0.02594239  0.04883361  0.62961945     0.92600
C463        C  0.11204353  0.96754242  0.63290482     0.84800
C464        C  0.94497781  0.96314502  0.63127683     0.91000
O465        O  0.62684155  0.89677985  0.99110478    -0.72700
O466        O  0.62678896  0.02325380  0.00056496    -0.73700
O467        O  0.62307439  0.96483171  0.93354284    -0.62300
O468        O  0.62968649  0.95495433  0.05886633    -0.70700
O469        O  0.69981865  0.95338570  0.05410765    -0.70300
O470        O  0.69316745  0.96663700  0.92846541    -0.61500
O471        O  0.69677145  0.02325510  0.99635511    -0.74000
O472        O  0.69672680  0.89719837  0.98444827    -0.72800
Cu473      Cu  0.62420715  0.95990711  0.99627099     1.04600
Cu474      Cu  0.69908208  0.96005497  0.99075510     1.04300
C475        C  0.66189669  0.87703029  0.98582763     0.93500
C476        C  0.66171673  0.04338921  0.99921717     0.92600
C477        C  0.65704473  0.96851834  0.91142530     0.84800
C478        C  0.66554536  0.95205044  0.07625023     0.91000
O479        O  0.37100085  0.95741228  0.06074072    -0.72700
O480        O  0.37805375  0.96954728  0.93554655    -0.73700
O481        O  0.37384162  0.90046555  0.99279073    -0.62300
O482        O  0.37574972  0.02623884  0.00491405    -0.70700
O483        O  0.44592202  0.02463469  0.00477055    -0.70300
O484        O  0.44394484  0.89866322  0.99447238    -0.61500
O485        O  0.44818303  0.96620981  0.93644542    -0.74000
O486        O  0.44093373  0.95617828  0.06272334    -0.72800
Cu487      Cu  0.37227255  0.96346525  0.99825370     1.04600
Cu488      Cu  0.44722405  0.96140171  0.99960897     1.04300
C489        C  0.40477007  0.95495796  0.08168766     0.93500
C490        C  0.41393992  0.96966050  0.91622652     0.92600
C491        C  0.40852634  0.87970543  0.99282963     0.84800
C492        C  0.41114845  0.04519673  0.00732588     0.91000
C493        C  0.06978643  0.16076593  0.33696609    -0.20100
C494        C  0.04371858  0.18622426  0.36258651    -0.06600
C495        C  0.01320976  0.16716542  0.38965229     0.14200
C496        C  0.01023753  0.12322544  0.39075947    -0.20100
C497        C  0.03603590  0.09775574  0.36476312    -0.06600
C498        C  0.06640686  0.11687969  0.33775098     0.14200
C499        C  0.09717070  0.09117616  0.31166708    -0.23500
H500        H  0.09345486  0.17541019  0.31673004     0.15500
H501        H  0.98690648  0.10875029  0.41152323     0.15500
C502        C  0.98264373  0.19200466  0.41710179    -0.23400
H503        H  0.12005252  0.11112897  0.29394009     0.05800
H504        H  0.08010257  0.07194199  0.28856090     0.09000
H505        H  0.11536146  0.07066813  0.33279796     0.09000
H506        H  0.98500024  0.22629574  0.41238436     0.09000
H507        H  0.98847273  0.18507557  0.45059463     0.09000
H508        H  0.94974030  0.18290912  0.40992431     0.05700
C509        C  0.07852888  0.32135742  0.13909502    -0.20100
C510        C  0.04537441  0.34342191  0.12051723    -0.06600
C511        C  0.01583373  0.36535592  0.14648703     0.14200
C512        C  0.02022470  0.36496086  0.19018350    -0.20100
C513        C  0.05324204  0.34288385  0.20874624    -0.06600
C514        C  0.08298493  0.32105512  0.18292629     0.14200
C515        C  0.11991214  0.29831636  0.20151221    -0.23500
H516        H  0.10137827  0.30484488  0.11917131     0.15500
H517        H  0.99721115  0.38119643  0.21016468     0.15500
C518        C  0.97822993  0.38717189  0.12845551    -0.23400
H519        H  0.14091502  0.28417272  0.17682967     0.05800
H520        H  0.10853495  0.27270378  0.22230275     0.09000
H521        H  0.13890950  0.32063144  0.21998242     0.09000
H522        H  0.95935430  0.36380909  0.11121785     0.09000
H523        H  0.98874999  0.41259441  0.10698770     0.09000
H524        H  0.95744810  0.40144283  0.15325244     0.05700
C525        C  0.98312013  0.77202539  0.36248556    -0.20100
C526        C  0.01451983  0.75088225  0.38473801    -0.06600
C527        C  0.04545367  0.77465103  0.40544579     0.14200
C528        C  0.04454120  0.81866735  0.40295913    -0.20100
C529        C  0.01389233  0.83969757  0.37973854    -0.06600
C530        C  0.98236490  0.81609847  0.35980462     0.14200
C531        C  0.94735537  0.83730537  0.33654323    -0.23500
H532        H  0.95947637  0.75381907  0.34655299     0.15500
H533        H  0.06860177  0.83680322  0.41837899     0.15500
C534        C  0.08015940  0.75376774  0.42926291    -0.23400
H535        H  0.92426683  0.81429206  0.32459514     0.05800
H536        H  0.96064193  0.85478116  0.30925931     0.09000
H537        H  0.93005310  0.85938774  0.35786575     0.09000
H538        H  0.09772451  0.73126926  0.40861250     0.09000
H539        H  0.06608616  0.73710159  0.45651484     0.09000
H540        H  0.10309165  0.77684110  0.44138963     0.05700
C541        C  0.05033463  0.57237896  0.20292299    -0.20100
C542        C  0.02298394  0.60224012  0.22182594    -0.06600
C543        C  0.00084092  0.63030434  0.19575462     0.14200
C544        C  0.00730927  0.62813805  0.15206847    -0.20100
C545        C  0.03305418  0.59704171  0.13317673    -0.06600
C546        C  0.05520592  0.56898032  0.15910214     0.14200
C547        C  0.08520543  0.53639533  0.14103101    -0.23500
H548        H  0.06787944  0.55128983  0.22274997     0.15500
H549        H  0.99063635  0.65009986  0.13246184     0.15500
C550        C  0.96902150  0.66195716  0.21236870    -0.23400
H551        H  0.10179096  0.51905677  0.16599375     0.05800
H552        H  0.10953291  0.55174357  0.12066121     0.09000
H553        H  0.06759352  0.51305277  0.12251040     0.09000
H554        H  0.96259458  0.65921050  0.24652284     0.09000
H555        H  0.93841886  0.65735210  0.19666072     0.09000
H556        H  0.98054962  0.69411421  0.20548581     0.05700
C557        C  0.05451010  0.37177557  0.79238010    -0.20100
C558        C  0.02628547  0.34382014  0.77374400    -0.06600
C559        C  0.00000569  0.31855231  0.79973858     0.14200
C560        C  0.00451888  0.32008518  0.84335910    -0.20100
C561        C  0.03303059  0.34768148  0.86200535    -0.06600
C562        C  0.05775576  0.37457183  0.83615746     0.14200
C563        C  0.08850317  0.40534653  0.85422553    -0.23500
H564        H  0.07449606  0.39124247  0.77241412     0.15500
H565        H  0.98478664  0.30014149  0.86310633     0.15500
C566        C  0.96627724  0.29034349  0.78278174    -0.23400
H567        H  0.10670603  0.42214110  0.82925915     0.05800
H568        H  0.11139957  0.38867340  0.87413524     0.09000
H569        H  0.07113301  0.42929062  0.87327653     0.09000
H570        H  0.97371265  0.25722272  0.79046211     0.09000
H571        H  0.96292771  0.29301817  0.74839335     0.09000
H572        H  0.93521149  0.29881768  0.79752055     0.05700
C573        C  0.05340999  0.11509001  0.59895349    -0.20100
C574        C  0.02586182  0.09537212  0.62788561    -0.06600
C575        C  0.99950068  0.12044242  0.65438928     0.14200
C576        C  0.00104151  0.16431475  0.65079544    -0.20100
C577        C  0.02955424  0.18406615  0.62283502    -0.06600
C578        C  0.05659988  0.15895701  0.59693191     0.14200
C579        C  0.09041650  0.17695539  0.56811519    -0.23500
H580        H  0.07406798  0.09605408  0.57893451     0.15500
H581        H  0.98033409  0.18353490  0.67055443     0.15500
C582        C  0.96928351  0.10138252  0.68618511    -0.23400
H583        H  0.12153453  0.16301805  0.57575652     0.05800
H584        H  0.09368268  0.21136350  0.57099466     0.09000
H585        H  0.08326958  0.16921857  0.53506076     0.09000
H586        H  0.98718632  0.08450573  0.71047085     0.09000
H587        H  0.94777952  0.07926859  0.67054521     0.09000
H588        H  0.94952860  0.12562081  0.70243668     0.05700
C589        C  0.01215958  0.76643002  0.62137730    -0.20100
C590        C  0.04989005  0.74922003  0.63622805    -0.06600
C591        C  0.08137496  0.77612156  0.65151638     0.14200
C592        C  0.07425828  0.81967100  0.65191270    -0.20100
C593        C  0.03683813  0.83687883  0.63640908    -0.06600
C594        C  0.00532790  0.81001291  0.62115299     0.14200
C595        C  0.96421765  0.82727686  0.60549089    -0.23500
H596        H  0.98807923  0.74559350  0.60978033     0.15500
H597        H  0.09846507  0.84049688  0.66330900     0.15500
C598        C  0.12288366  0.75891734  0.66619329    -0.23400
H599        H  0.94262175  0.80189932  0.59565465     0.05800
H600        H  0.97034304  0.84791630  0.57805711     0.09000
H601        H  0.94798822  0.84563483  0.63081135     0.09000
H602        H  0.13894803  0.74133348  0.64020811     0.09000
H603        H  0.11736711  0.73753692  0.69316281     0.09000
H604        H  0.14434772  0.78428176  0.67634240     0.05700
C605        C  0.02093417  0.56860559  0.80428807    -0.20100
C606        C  0.05615052  0.58892911  0.78605048    -0.06600
C607        C  0.08614562  0.60767868  0.81216860     0.14200
C608        C  0.07925787  0.60740225  0.85584393    -0.20100
C609        C  0.04383908  0.58757459  0.87413286    -0.06600
C610        C  0.01463984  0.56732518  0.84812107     0.14200
C611        C  0.97628866  0.54552906  0.86641704    -0.23500
H612        H  0.99819858  0.55396031  0.78405574     0.15500
H613        H  0.10202972  0.62217469  0.87595934     0.15500
C614        C  0.12585503  0.62710935  0.79398342    -0.23400
H615        H  0.95609774  0.53249718  0.84155511     0.05800
H616        H  0.95694529  0.56806623  0.88541787     0.09000
H617        H  0.98626399  0.51917220  0.88662778     0.09000
H618        H  0.11779649  0.65374336  0.77330770     0.09000
H619        H  0.14394869  0.60324155  0.77544387     0.09000
H620        H  0.14660022  0.63912588  0.81888589     0.05700
C621        C  0.82163183  0.96440130  0.40176651    -0.20100
C622        C  0.80318492  0.99042167  0.37164688    -0.06600
C623        C  0.82999456  0.01487851  0.34531382     0.14200
C624        C  0.87413146  0.00985816  0.34732481    -0.20100
C625        C  0.89254435  0.98262025  0.37638796    -0.06600
C626        C  0.86579884  0.96049165  0.40480118     0.14200
C627        C  0.88338688  0.93107658  0.43700513    -0.23500
H628        H  0.80120322  0.94580734  0.42214112     0.15500
H629        H  0.89440608  0.02764265  0.32606712     0.15500
C630        C  0.81311709  0.04621491  0.31457059    -0.23400
H631        H  0.85787371  0.91498839  0.45523953     0.05800
H632        H  0.90258885  0.94884467  0.45960415     0.09000
H633        H  0.90333310  0.90669678  0.42124778     0.09000
H634        H  0.77816821  0.04905398  0.31640772     0.09000
H635        H  0.82271400  0.03683304  0.28213479     0.09000
H636        H  0.82643446  0.07762173  0.32124842     0.05700
C637        C  0.67665792  0.90870156  0.14026562    -0.20100
C638        C  0.66694058  0.94773867  0.12248892    -0.06600
C639        C  0.65636269  0.98174870  0.14917053     0.14200
C640        C  0.65612325  0.97629983  0.19281207    -0.20100
C641        C  0.66497177  0.93724146  0.21071064    -0.06600
C642        C  0.67528556  0.90287809  0.18412882     0.14200
C643        C  0.68460915  0.85988094  0.20100334    -0.23500
H644        H  0.68432678  0.88237846  0.11982612     0.15500
H645        H  0.64814228  0.00254925  0.21324282     0.15500
C646        C  0.64425429  0.02359571  0.13155136    -0.23400
H647        H  0.66152035  0.83715850  0.18855436     0.05800
H648        H  0.68262747  0.85861550  0.23574362     0.09000
H649        H  0.71700933  0.85011745  0.19081249     0.09000
H650        H  0.61473741  0.01965148  0.11397817     0.09000
H651        H  0.66989100  0.03539079  0.11032538     0.09000
H652        H  0.63822111  0.04733156  0.15657196     0.05700
C653        C  0.22417439  0.97029154  0.33457765    -0.20100
C654        C  0.24452212  0.95319075  0.36939829    -0.06600
C655        C  0.21902462  0.93637566  0.40252295     0.14200
C656        C  0.17470833  0.94027595  0.40127774    -0.20100
C657        C  0.15440848  0.95735504  0.36641332    -0.06600
C658        C  0.17982422  0.97087665  0.33174728     0.14200
C659        C  0.16097995  0.98591586  0.29147492    -0.23500
H660        H  0.24330296  0.98286868  0.30893668     0.15500
H661        H  0.15572514  0.92840228  0.42739175     0.15500
C662        C  0.23694170  0.91269607  0.43898827    -0.23400
H663        H  0.18564049  0.99632611  0.26842143     0.05800
H664        H  0.13944048  0.01269576  0.29768556     0.09000
H665        H  0.14326584  0.96002276  0.27672447     0.09000
H666        H  0.27146596  0.90729733  0.43590327     0.09000
H667        H  0.22194631  0.88132226  0.44111098     0.09000
H668        H  0.23000988  0.93008629  0.46860892     0.05700
C669        C  0.43484294  0.92857734  0.14796291    -0.20100
C670        C  0.40235287  0.95052488  0.12815702    -0.06600
C671        C  0.36888142  0.96770504  0.15326490     0.14200
C672        C  0.37161838  0.96686623  0.19709059    -0.20100
C673        C  0.40454421  0.94570806  0.21697768    -0.06600
C674        C  0.43548660  0.92448868  0.19181615     0.14200
C675        C  0.46813763  0.89592960  0.21038727    -0.23500
H676        H  0.45950681  0.91366152  0.12891304     0.15500
H677        H  0.34718123  0.98211332  0.21615868     0.15500
C678        C  0.32973544  0.98638438  0.13471719    -0.23400
H679        H  0.48391585  0.87601239  0.18597135     0.05800
H680        H  0.45305555  0.87474135  0.23387656     0.09000
H681        H  0.49315036  0.91457430  0.22501564     0.09000
H682        H  0.31258280  0.96189447  0.11721396     0.09000
H683        H  0.33830559  0.01221561  0.11334373     0.09000
H684        H  0.30759166  0.99915186  0.15919263     0.05700
C685        C  0.42867653  0.94953452  0.79900794    -0.20100
C686        C  0.41158710  0.98648874  0.78247755    -0.06600
C687        C  0.39765184  0.01873620  0.81019115     0.14200
C688        C  0.39912564  0.01228799  0.85368073    -0.20100
C689        C  0.41542462  0.97507404  0.87020054    -0.06600
C690        C  0.43109985  0.94356934  0.84264097     0.14200
C691        C  0.44869417  0.90306031  0.85921191    -0.23500
H692        H  0.43925752  0.92490313  0.77767932     0.15500
H693        H  0.38752912  0.03648599  0.87503501     0.15500
C694        C  0.38101508  0.05989067  0.79415362    -0.23400
H695        H  0.45873903  0.88147729  0.83340306     0.05800
H696        H  0.42423134  0.88698215  0.87881459     0.09000
H697        H  0.47668343  0.90953681  0.87850681     0.09000
H698        H  0.35324652  0.05472836  0.77424946     0.09000
H699        H  0.40620903  0.07593726  0.77555786     0.09000
H700        H  0.37101593  0.08117419  0.82022555     0.05700
C701        C  0.22788661  0.99299707  0.61225276    -0.20100
C702        C  0.24789205  0.96142678  0.63535524    -0.06600
C703        C  0.22280126  0.93104405  0.65642426     0.14200
C704        C  0.17854546  0.93478902  0.65615133    -0.20100
C705        C  0.15870449  0.96648268  0.63324786    -0.06600
C706        C  0.18364670  0.99553336  0.61038660     0.14200
C707        C  0.16378227  0.02987468  0.58497081    -0.23500
H708        H  0.24715551  0.01585996  0.59556896     0.15500
H709        H  0.15930655  0.91188152  0.67282806     0.15500
C710        C  0.24145720  0.89380511  0.67844945    -0.23400
H711        H  0.18800561  0.05066319  0.57028596     0.05800
H712        H  0.14272348  0.04942143  0.60549904     0.09000
H713        H  0.14510584  0.01605044  0.55940848     0.09000
H714        H  0.27640079  0.89229648  0.67524226     0.09000
H715        H  0.22876156  0.86449095  0.66484402     0.09000
H716        H  0.23257368  0.89505840  0.71234425     0.05700
C717        C  0.83019607  0.98840094  0.60937953    -0.20100
C718        C  0.80959220  0.95292065  0.62574461    -0.06600
C719        C  0.83404714  0.92025231  0.64316301     0.14200
C720        C  0.87796494  0.92539976  0.64641746    -0.20100
C721        C  0.89840096  0.96089328  0.62995286    -0.06600
C722        C  0.87433139  0.99234387  0.61036393     0.14200
C723        C  0.89495785  0.03043999  0.59109990    -0.23500
H724        H  0.81147734  0.01321081  0.59573757     0.15500
H725        H  0.89657964  0.90084131  0.66061381     0.15500
C726        C  0.81497249  0.87956124  0.65809072    -0.23400
H727        H  0.87127928  0.05241255  0.57815260     0.05800
H728        H  0.91681734  0.02083837  0.56502907     0.09000
H729        H  0.91293124  0.04746419  0.61513605     0.09000
H730        H  0.78048469  0.87790345  0.65288704     0.09000
H731        H  0.82047137  0.87559812  0.69212316     0.09000
H732        H  0.83026429  0.85305775  0.64080106     0.05700
C733        C  0.67309795  0.01428304  0.80240097    -0.20100
C734        C  0.64978035  0.98620759  0.77831220    -0.06600
C735        C  0.62658974  0.95381658  0.79850449     0.14200
C736        C  0.62884225  0.94934225  0.84213971    -0.20100
C737        C  0.65437913  0.97573402  0.86586318    -0.06600
C738        C  0.67603949  0.00919057  0.84593169     0.14200
C739        C  0.70159151  0.04005472  0.87053122    -0.23500
H740        H  0.69037771  0.03926551  0.78673970     0.15500
H741        H  0.61161999  0.92415909  0.85757311     0.15500
C742        C  0.60019848  0.92264171  0.77505162    -0.23400
H743        H  0.71456930  0.06543024  0.85026135     0.05800
H744        H  0.72866715  0.02388960  0.88507594     0.09000
H745        H  0.68122657  0.05475761  0.89538171     0.09000
H746        H  0.61205174  0.89041399  0.78091449     0.09000
H747        H  0.60079975  0.92752261  0.74068829     0.09000
H748        H  0.56677892  0.92491138  0.78639977     0.05700
C749        C  0.38477974  0.76573755  0.01874808    -0.20100
C750        C  0.41018783  0.74467436  0.98867000    -0.06600
C751        C  0.43456401  0.76835617  0.95942366     0.14200
C752        C  0.43378363  0.81233870  0.96189665    -0.20100
C753        C  0.40789419  0.83333682  0.99157271    -0.06600
C754        C  0.38302942  0.80973837  0.02035948     0.14200
C755        C  0.35571583  0.83075937  0.05372447    -0.23500
H756        H  0.36623259  0.74752320  0.04113250     0.15500
H757        H  0.45275976  0.83043438  0.93973902     0.15500
C758        C  0.46070070  0.74848588  0.92446659    -0.23400
H759        H  0.33995458  0.80754073  0.07471027     0.05800
H760        H  0.33061418  0.84964693  0.03892859     0.09000
H761        H  0.37539233  0.85145944  0.07332242     0.09000
H762        H  0.45766280  0.71393135  0.92319481     0.09000
H763        H  0.49456546  0.75628017  0.92838464     0.09000
H764        H  0.45031819  0.76094912  0.89387282     0.05700
C765        C  0.23498607  0.61735256  0.02178855    -0.20100
C766        C  0.25590685  0.58989652  0.99367658    -0.06600
C767        C  0.23182243  0.56239370  0.96883616     0.14200
C768        C  0.18761257  0.56272143  0.97338494    -0.20100
C769        C  0.16669990  0.59088974  0.00074225    -0.06600
C770        C  0.19070349  0.61850594  0.02540142     0.14200
C771        C  0.17001581  0.64820104  0.05663029    -0.23500
H772        H  0.25355762  0.63800283  0.04107522     0.15500
H773        H  0.16921649  0.54171735  0.95428146     0.15500
C774        C  0.25133872  0.53309972  0.93646835    -0.23400
H775        H  0.19376548  0.66547116  0.07500367     0.05800
H776        H  0.14955234  0.63038877  0.07902035     0.09000
H777        H  0.15074417  0.67183207  0.04011388     0.09000
H778        H  0.24493106  0.50012949  0.94568089     0.09000
H779        H  0.28593381  0.53704936  0.93223027     0.09000
H780        H  0.23709972  0.53908283  0.90554196     0.05700
C781        C  0.69160149  0.76340386  0.95913147    -0.20100
C782        C  0.66329890  0.74150209  0.98551789    -0.06600
C783        C  0.63276324  0.76434216  0.00965085     0.14200
C784        C  0.63214762  0.80828184  0.00747851    -0.20100
C785        C  0.66204075  0.83041212  0.98304195    -0.06600
C786        C  0.69168277  0.80750941  0.95781546     0.14200
C787        C  0.72294362  0.82908884  0.92879869    -0.23500
H788        H  0.71448047  0.74578172  0.94023996     0.15500
H789        H  0.60916317  0.82548204  0.02666725     0.15500
C790        C  0.60127773  0.74380689  0.03928763    -0.23400
H791        H  0.74151696  0.80622440  0.90942623     0.05800
H792        H  0.74574017  0.84747290  0.94719448     0.09000
H793        H  0.70591448  0.85015504  0.90718729     0.09000
H794        H  0.60554798  0.70947289  0.04170287     0.09000
H795        H  0.56869594  0.75022744  0.02867881     0.09000
H796        H  0.60465770  0.75698313  0.07130045     0.05700
C797        C  0.84485265  0.61013479  0.05735926    -0.20100
C798        C  0.81844528  0.59317710  0.02714280    -0.06600
C799        C  0.83653874  0.57576996  0.98979164     0.14200
C800        C  0.88068722  0.57539702  0.98400120    -0.20100
C801        C  0.90689841  0.59351474  0.01373558    -0.06600
C802        C  0.88880313  0.61133022  0.05067862     0.14200
C803        C  0.91593502  0.63057102  0.08367958    -0.23500
H804        H  0.83091350  0.62281702  0.08611306     0.15500
H805        H  0.89467369  0.56169563  0.95571333     0.15500
C806        C  0.81029516  0.55784640  0.95518710    -0.23400
H807        H  0.89677893  0.64225363  0.11098041     0.05800
H808        H  0.93375199  0.65750567  0.07030027     0.09000
H809        H  0.93843067  0.60663948  0.09511888     0.09000
H810        H  0.77578358  0.56050655  0.96149116     0.09000
H811        H  0.81820558  0.52414445  0.95072899     0.09000
H812        H  0.81749272  0.57479275  0.92549422     0.05700
C813        C  0.23661543  0.31785059  0.95032219    -0.20100
C814        C  0.25883640  0.33362857  0.98445323    -0.06600
C815        C  0.23623123  0.35340078  0.01799685     0.14200
C816        C  0.19207534  0.35662230  0.01667720    -0.20100
C817        C  0.16972981  0.33965720  0.98333884    -0.06600
C818        C  0.19218203  0.32006444  0.94966221     0.14200
C819        C  0.16945848  0.30225027  0.91270716    -0.23500
H820        H  0.25412321  0.30340584  0.92440495     0.15500
H821        H  0.17481083  0.37145690  0.04257069     0.15500
C822        C  0.25751500  0.37090945  0.05606768    -0.23400
H823        H  0.19192941  0.28938772  0.88857770     0.05800
H824        H  0.15039187  0.32716823  0.89786824     0.09000
H825        H  0.14829776  0.27645434  0.92315525     0.09000
H826        H  0.29227941  0.36642048  0.05531123     0.09000
H827        H  0.24474914  0.35517997  0.08468817     0.09000
H828        H  0.25089992  0.40506265  0.05856740     0.05700
C829        C  0.43394148  0.11641217  0.98465470    -0.20100
C830        C  0.41184568  0.09124324  0.01369135    -0.06600
C831        C  0.39103353  0.11040912  0.04857368     0.14200
C832        C  0.39201890  0.15415202  0.05321698    -0.20100
C833        C  0.41279640  0.17937908  0.02345491    -0.06600
C834        C  0.43429614  0.16031128  0.98880334     0.14200
C835        C  0.45710229  0.18531643  0.95522072    -0.23500
H836        H  0.45009977  0.10182487  0.95796315     0.15500
H837        H  0.37570965  0.16894107  0.07969297     0.15500
C838        C  0.36832723  0.08476210  0.08137415    -0.23400
H839        H  0.44290410  0.17881392  0.92437363     0.05800
H840        H  0.49098022  0.17598161  0.95376289     0.09000
H841        H  0.45550340  0.21961106  0.96069735     0.09000
H842        H  0.39071973  0.06177046  0.09477609     0.09000
H843        H  0.34151458  0.06823138  0.06694291     0.09000
H844        H  0.35531620  0.10447213  0.10745287     0.05700
C845        C  0.83909463  0.37288750  0.01729254    -0.20100
C846        C  0.81906289  0.34138701  0.99412004    -0.06600
C847        C  0.84440211  0.31439071  0.96847858     0.14200
C848        C  0.88865388  0.31697691  0.97012879    -0.20100
C849        C  0.90861897  0.34802022  0.99387758    -0.06600
C850        C  0.88324380  0.37762878  0.01616365     0.14200
C851        C  0.90212104  0.41391232  0.03936514    -0.23500
H852        H  0.81995411  0.39405930  0.03655019     0.15500
H853        H  0.90780950  0.29524013  0.95150331     0.15500
C854        C  0.82620785  0.28343882  0.93802423    -0.23400
H855        H  0.87759035  0.43292180  0.05629989     0.05800
H856        H  0.91895041  0.43491979  0.01691452     0.09000
H857        H  0.92449474  0.40217418  0.06264608     0.09000
H858        H  0.79140157  0.28593372  0.93578411     0.09000
H859        H  0.83459130  0.25102347  0.94748725     0.09000
H860        H  0.83972402  0.28933450  0.90611500     0.05700
C861        C  0.63595391  0.15827615  0.02492821    -0.20100
C862        C  0.66678679  0.17968748  0.00083836    -0.06600
C863        C  0.69438380  0.15574176  0.97428079     0.14200
C864        C  0.69303311  0.11159445  0.97592079    -0.20100
C865        C  0.66197343  0.09031773  0.99991783    -0.06600
C866        C  0.63177502  0.11445373  0.02311556     0.14200
C867        C  0.59493879  0.09466355  0.04617441    -0.23500
H868        H  0.61421721  0.17619302  0.04483430     0.15500
H869        H  0.71524093  0.09364580  0.95654685     0.15500
C870        C  0.72392940  0.17528034  0.94212269    -0.23400
H871        H  0.57404125  0.07895842  0.02355890     0.05800
H872        H  0.57543814  0.11814754  0.06380647     0.09000
H873        H  0.60667837  0.07162665  0.06884475     0.09000
H874        H  0.75719856  0.16789851  0.94978356     0.09000
H875        H  0.72016003  0.20971153  0.93981047     0.09000
H876        H  0.71728627  0.16220328  0.91064778     0.05700
loop_ 
_geom_bond_atom_site_label_1 
_geom_bond_atom_site_label_2 
_geom_bond_distance 
_geom_bond_site_symmetry_2 
_ccdc_geom_bond_type 
N1            C6   1.346       .  A
N1            C5   1.349       .  A
N1           H33   1.044       .  S
N2            C9   1.352       .  A
N2           C10   1.348   1_554  A
N3            C8   1.352       .  A
N3            C7   1.350       .  A
N3           H34   1.043   1_554  S
N4           C11   1.351       .  A
N4           C12   1.351       .  A
C5           C13   1.387       .  A
C5           C21   1.414       .  A
C6           C22   1.411       .  A
C6           C14   1.387       .  A
C7           C15   1.389       .  A
C7           C24   1.418   1_554  A
C8           C23   1.417       .  A
C8           C16   1.387       .  A
C9           C21   1.421       .  A
C9           C17   1.389   1_554  A
C10          C24   1.413       .  A
C10          C18   1.385       .  A
C11          C19   1.390   1_554  A
C11          C22   1.423       .  A
C12          C20   1.383   1_554  A
C12          C23   1.413       .  A
C13          C14   1.393       .  A
C13          H25   1.082       .  S
C14          H26   1.082       .  S
C15          C16   1.385       .  A
C15          H27   1.082       .  S
C16          H28   1.082       .  S
C17          C18   1.380       .  A
C17          H29   1.082       .  S
C18          H30   1.082       .  S
C19          C20   1.379       .  A
C19          H31   1.081       .  S
C20          H32   1.082       .  S
C21          C89   1.525       .  S
C22          C56   1.521       .  S
C23         C862   1.507       .  S
C24         C846   1.499       .  S
N35          C40   1.362       .  A
N35          C39   1.361       .  A
N35          H67   1.041   1_554  S
N36          C43   1.347       .  A
N36          C44   1.348       .  A
N37          C42   1.352       .  A
N37          C41   1.353   1_554  A
N37          H68   1.037       .  S
N38          C45   1.350       .  A
N38          C46   1.352       .  A
C39          C47   1.381       .  A
C39          C55   1.427   1_554  A
C40          C56   1.431       .  A
C40          C48   1.385       .  A
C41          C49   1.384       .  A
C41          C58   1.413       .  A
C42          C57   1.419       .  A
C42          C50   1.389       .  A
C43          C55   1.414       .  A
C43          C51   1.389       .  A
C44          C58   1.409       .  A
C44          C52   1.383       .  A
C45          C53   1.388       .  A
C45          C56   1.420       .  A
C46          C54   1.385       .  A
C46          C57   1.415       .  A
C47          C48   1.366       .  A
C47          H59   1.080       .  S
C48          H60   1.064       .  S
C49          C50   1.375   1_556  A
C49          H61   1.081       .  S
C50          H62   1.082   1_554  S
C51          C52   1.372       .  A
C51          H63   1.082       .  S
C52          H64   1.082       .  S
C53          C54   1.373       .  A
C53          H65   1.082       .  S
C54          H66   1.082       .  S
C55         C123   1.512       .  S
C57         C833   1.490       .  S
C58         C814   1.488       .  S
N69          C74   1.359       .  A
N69          C73   1.359       .  A
N69         H101   1.041   1_554  S
N70          C77   1.356       .  A
N70          C78   1.355       .  A
N71          C76   1.357       .  A
N71          C75   1.347       .  A
N71         H102   1.035   1_554  S
N72          C79   1.343       .  A
N72          C80   1.347       .  A
C73          C81   1.385       .  A
C73          C89   1.425       .  A
C74          C90   1.422   1_554  A
C74          C82   1.382       .  A
C75          C83   1.387       .  A
C75          C92   1.409       .  A
C76          C91   1.417   1_554  A
C76          C84   1.386       .  A
C77          C89   1.424       .  A
C77          C85   1.388       .  A
C78          C92   1.416       .  A
C78          C86   1.384       .  A
C79          C87   1.389       .  A
C79          C90   1.407       .  A
C80          C88   1.384       .  A
C80          C91   1.406       .  A
C81          C82   1.372       .  A
C81          H93   1.069       .  S
C82          H94   1.081       .  S
C83          C84   1.376       .  A
C83          H95   1.081       .  S
C84          H96   1.082       .  S
C85          C86   1.371       .  A
C85          H97   1.082       .  S
C86          H98   1.083       .  S
C87          C88   1.375       .  A
C87          H99   1.082       .  S
C88         H100   1.082       .  S
C90         C124   1.500       .  S
C91         C782   1.494       .  S
C92         C798   1.486       .  S
N103        C108   1.347       .  A
N103        C107   1.350       .  A
N103        H135   1.043   1_556  S
N104        C111   1.350   1_556  A
N104        C112   1.347   1_556  A
N105        C110   1.352       .  A
N105        C109   1.350       .  A
N105        H136   1.041   1_556  S
N106        C113   1.349       .  A
N106        C114   1.349       .  A
C107        C115   1.387       .  A
C107        C123   1.414       .  A
C108        C124   1.411       .  A
C108        C116   1.387       .  A
C109        C117   1.388       .  A
C109        C126   1.415       .  A
C110        C125   1.414       .  A
C110        C118   1.386       .  A
C111        C123   1.418   1_554  A
C111        C119   1.388       .  A
C112        C126   1.410   1_554  A
C112        C120   1.385       .  A
C113        C121   1.389   1_556  A
C113        C124   1.418       .  A
C114        C122   1.384   1_556  A
C114        C125   1.410       .  A
C115        C116   1.382       .  A
C115        H127   1.082       .  S
C116        H128   1.082       .  S
C117        C118   1.381       .  A
C117        H129   1.082       .  S
C118        H130   1.082       .  S
C119        C120   1.378       .  A
C119        H131   1.082       .  S
C120        H132   1.082       .  S
C121        C122   1.378       .  A
C121        H133   1.081       .  S
C122        H134   1.082       .  S
C125        C750   1.491       .  S
C126        C766   1.488       .  S
N137        C142   1.359       .  A
N137        C141   1.357       .  A
N137        H169   1.044   1_565  S
N138        C145   1.353       .  A
N138        C146   1.354       .  A
N139        C144   1.354       .  A
N139        C143   1.354       .  A
N139        H170   1.033       .  S
N140        C147   1.351   1_565  A
N140        C148   1.347   1_565  A
C141        C149   1.387       .  A
C141        C157   1.422       .  A
C142        C158   1.426       .  A
C142        C150   1.385       .  A
C143        C151   1.388       .  A
C143        C160   1.419       .  A
C144        C159   1.416       .  A
C144        C152   1.386       .  A
C145        C157   1.422       .  A
C145        C153   1.388       .  A
C146        C160   1.420       .  A
C146        C154   1.386       .  A
C147        C155   1.391       .  A
C147        C158   1.419   1_545  A
C148        C156   1.381       .  A
C148        C159   1.406   1_545  A
C149        C150   1.373       .  A
C149        H161   1.077       .  S
C150        H162   1.082       .  S
C151        C152   1.370       .  A
C151        H163   1.080       .  S
C152        H164   1.082       .  S
C153        C154   1.373       .  A
C153        H165   1.082       .  S
C154        H166   1.082       .  S
C155        C156   1.374       .  A
C155        H167   1.078       .  S
C156        H168   1.083       .  S
C157        C260   1.517       .  S
C158        C192   1.519   1_565  S
C159        C734   1.486       .  S
C160        C718   1.495       .  S
N171        C176   1.348   1_565  A
N171        C175   1.347       .  A
N171        H203   1.034       .  S
N172        C179   1.355       .  A
N172        C180   1.351       .  A
N173        C178   1.353       .  A
N173        C177   1.352       .  A
N173        H204   1.032       .  S
N174        C181   1.356   1_565  A
N174        C182   1.359   1_565  A
C175        C183   1.394   1_565  A
C175        C191   1.420       .  A
C176        C192   1.408       .  A
C176        C184   1.382       .  A
C177        C185   1.392       .  A
C177        C194   1.423       .  A
C178        C193   1.414       .  A
C178        C186   1.383       .  A
C179        C191   1.424       .  A
C179        C187   1.388       .  A
C180        C194   1.416       .  A
C180        C188   1.385       .  A
C181        C189   1.384       .  A
C181        C192   1.408       .  A
C182        C190   1.385       .  A
C182        C193   1.401   1_545  A
C183        C184   1.385       .  A
C183        H195   1.082       .  S
C184        H196   1.082       .  S
C185        C186   1.381       .  A
C185        H197   1.081       .  S
C186        H198   1.082       .  S
C187        C188   1.374       .  A
C187        H199   1.082       .  S
C188        H200   1.083       .  S
C189        C190   1.361       .  A
C189        H201   1.083       .  S
C190        H202   1.083       .  S
C191        C226   1.504       .  S
C193        C686   1.486       .  S
C194        C702   1.493       .  S
N205        C210   1.350       .  A
N205        C209   1.360       .  A
N205        H237   1.044       .  S
N206        C213   1.349       .  A
N206        C214   1.348       .  A
N207        C212   1.354       .  A
N207        C211   1.350       .  A
N207        H238   1.042       .  S
N208        C215   1.348       .  A
N208        C216   1.351       .  A
C209        C217   1.391       .  A
C209        C225   1.431       .  A
C210        C226   1.418       .  A
C210        C218   1.384       .  A
C211        C219   1.386       .  A
C211        C228   1.416       .  A
C212        C227   1.420       .  A
C212        C220   1.388       .  A
C213        C225   1.415       .  A
C213        C221   1.387       .  A
C214        C228   1.410       .  A
C214        C222   1.386       .  A
C215        C223   1.389   1_565  A
C215        C226   1.416       .  A
C216        C224   1.385       .  A
C216        C227   1.415       .  A
C217        C218   1.382       .  A
C217        H229   1.076       .  S
C218        H230   1.082       .  S
C219        C220   1.383       .  A
C219        H231   1.082       .  S
C220        H232   1.082       .  S
C221        C222   1.381       .  A
C221        H233   1.082       .  S
C222        H234   1.082       .  S
C223        C224   1.381   1_545  A
C223        H235   1.082       .  S
C224        H236   1.082   1_565  S
C225        C259   1.528       .  S
C227        C654   1.508       .  S
C228        C673   1.497       .  S
N239        C244   1.352       .  A
N239        C243   1.346       .  A
N239        H271   1.045       .  S
N240        C247   1.352       .  A
N240        C248   1.349       .  A
N241        C246   1.357       .  A
N241        C245   1.356       .  A
N241        H272   1.041       .  S
N242        C249   1.354       .  A
N242        C250   1.350       .  A
C243        C251   1.387       .  A
C243        C259   1.400       .  A
C244        C260   1.397       .  A
C244        C252   1.382       .  A
C245        C253   1.383       .  A
C245        C262   1.416       .  A
C246        C261   1.425       .  A
C246        C254   1.390       .  A
C247        C259   1.415       .  A
C247        C255   1.383       .  A
C248        C262   1.415       .  A
C248        C256   1.387       .  A
C249        C257   1.386   1_565  A
C249        C260   1.416       .  A
C250        C258   1.387   1_565  A
C250        C261   1.417       .  A
C251        C252   1.380       .  A
C251        H263   1.082       .  S
C252        H264   1.082       .  S
C253        C254   1.376       .  A
C253        H265   1.082       .  S
C254        H266   1.081       .  S
C255        C256   1.380       .  A
C255        H267   1.081       .  S
C256        H268   1.082       .  S
C257        C258   1.380       .  A
C257        H269   1.082       .  S
C258        H270   1.082       .  S
C261        C622   1.502       .  S
C262        C641   1.493       .  S
N273        C278   1.359       .  A
N273        C277   1.358       .  A
N273        H305   1.044       .  S
N274        C281   1.351       .  A
N274        C282   1.347       .  A
N275        C280   1.358       .  A
N275        C279   1.358       .  A
N275        H306   1.040       .  S
N276        C283   1.351       .  A
N276        C284   1.346       .  A
C277        C285   1.386       .  A
C277        C293   1.409       .  A
C278        C294   1.408       .  A
C278        C286   1.385       .  A
C279        C287   1.386       .  A
C279        C296   1.420       .  A
C280        C295   1.423       .  A
C280        C288   1.388       .  A
C281        C293   1.414       .  A
C281        C289   1.382       .  A
C282        C296   1.412       .  A
C282        C290   1.389       .  A
C283        C291   1.385       .  A
C283        C294   1.415       .  A
C284        C292   1.389       .  A
C284        C295   1.412       .  A
C285        C286   1.362       .  A
C285        H297   1.083       .  S
C286        H298   1.083       .  S
C287        C288   1.376       .  A
C287        H299   1.082       .  S
C288        H300   1.082       .  S
C289        C290   1.378       .  A
C289        H301   1.079       .  S
C290        H302   1.082       .  S
C291        C292   1.378       .  A
C291        H303   1.082       .  S
C292        H304   1.082       .  S
C293        C361   1.526       .  S
C294        C327   1.519       .  S
C295        C606   1.492       .  S
C296        C590   1.492       .  S
N307        C312   1.348       .  A
N307        C311   1.356       .  A
N307        H339   1.044       .  S
N308        C315   1.350       .  A
N308        C316   1.348       .  A
N309        C314   1.350       .  A
N309        C313   1.349       .  A
N309        H340   1.043       .  S
N310        C317   1.348       .  A
N310        C318   1.350       .  A
C311        C319   1.391       .  A
C311        C327   1.425       .  A
C312        C328   1.415       .  A
C312        C320   1.385       .  A
C313        C321   1.387       .  A
C313        C330   1.413       .  A
C314        C329   1.414       .  A
C314        C322   1.387       .  A
C315        C327   1.419       .  A
C315        C323   1.389       .  A
C316        C330   1.409       .  A
C316        C324   1.384   1_455  A
C317        C325   1.389       .  A
C317        C328   1.414       .  A
C318        C326   1.384       .  A
C318        C329   1.410       .  A
C319        C320   1.382       .  A
C319        H331   1.079       .  S
C320        H332   1.082       .  S
C321        C322   1.382       .  A
C321        H333   1.082       .  S
C322        H334   1.082       .  S
C323        C324   1.379   1_455  A
C323        H335   1.082   1_455  S
C324        H336   1.082       .  S
C325        C326   1.378       .  A
C325        H337   1.082   1_455  S
C326        H338   1.082   1_455  S
C328        C395   1.499       .  S
C329        C577   1.494       .  S
C330        C558   1.491       .  S
N341        C346   1.352       .  A
N341        C345   1.357       .  A
N341        H373   1.044       .  S
N342        C349   1.352       .  A
N342        C350   1.352       .  A
N343        C348   1.352       .  A
N343        C347   1.350       .  A
N343        H374   1.044   1_455  S
N344        C351   1.348       .  A
N344        C352   1.348       .  A
C345        C353   1.392       .  A
C345        C361   1.429       .  A
C346        C362   1.418       .  A
C346        C354   1.383       .  A
C347        C355   1.386       .  A
C347        C364   1.412       .  A
C348        C363   1.416       .  A
C348        C356   1.388       .  A
C349        C361   1.425       .  A
C349        C357   1.391   1_455  A
C350        C364   1.413       .  A
C350        C358   1.383   1_455  A
C351        C359   1.388   1_455  A
C351        C362   1.412       .  A
C352        C360   1.385   1_455  A
C352        C363   1.411       .  A
C353        C354   1.381       .  A
C353        H365   1.078       .  S
C354        H366   1.082       .  S
C355        C356   1.383       .  A
C355        H367   1.082       .  S
C356        H368   1.082       .  S
C357        C358   1.383       .  A
C357        H369   1.082       .  S
C358        H370   1.082       .  S
C359        C360   1.378       .  A
C359        H371   1.082       .  S
C360        H372   1.082       .  S
C362        C396   1.507       .  S
C363        C542   1.499       .  S
C364        C526   1.497       .  S
N375        C380   1.350       .  A
N375        C379   1.350       .  A
N375        H407   1.042       .  S
N376        C383   1.347       .  A
N376        C384   1.346       .  A
N377        C382   1.350       .  A
N377        C381   1.353       .  A
N377        H408   1.042       .  S
N378        C385   1.352       .  A
N378        C386   1.350       .  A
C379        C387   1.387       .  A
C379        C395   1.414       .  A
C380        C396   1.414       .  A
C380        C388   1.388       .  A
C381        C389   1.387       .  A
C381        C398   1.415       .  A
C382        C397   1.413       .  A
C382        C390   1.387       .  A
C383        C395   1.412       .  A
C383        C391   1.388       .  A
C384        C398   1.407       .  A
C384        C392   1.385       .  A
C385        C393   1.388       .  A
C385        C396   1.419       .  A
C386        C394   1.385       .  A
C386        C397   1.413       .  A
C387        C388   1.378       .  A
C387        H399   1.082   1_455  S
C388        H400   1.082   1_455  S
C389        C390   1.381       .  A
C389        H401   1.082       .  S
C390        H402   1.082       .  S
C391        C392   1.379       .  A
C391        H403   1.082       .  S
C392        H404   1.082       .  S
C393        C394   1.380       .  A
C393        H405   1.082       .  S
C394        H406   1.082       .  S
C397        C513   1.491       .  S
C398        C494   1.492       .  S
O409       Cu417   2.023       .  S
O409        C419   1.280       .  A
O410       Cu417   2.024   1_655  S
O410        C420   1.279       .  A
O411       Cu417   2.012   1_554  S
O411        C421   1.277       .  A
O412       Cu417   2.011       .  S
O412        C422   1.277       .  A
O413       Cu418   2.009       .  S
O413        C422   1.278       .  A
O414       Cu418   2.028   1_554  S
O414        C421   1.280       .  A
O415       Cu418   2.008   1_655  S
O415        C420   1.278       .  A
O416       Cu418   2.006       .  S
O416        C419   1.276       .  A
Cu417      Cu418   2.371       .  S
C419        C817   1.477       .  S
C420        C849   1.488       .  S
C421        C510   1.483       .  S
C422        C561   1.481       .  S
O423       Cu431   2.012       .  S
O423        C433   1.278       .  A
O424       Cu431   2.013   1_655  S
O424        C434   1.277       .  A
O425       Cu431   2.018   1_556  S
O425        C435   1.278       .  A
O426       Cu431   2.023       .  S
O426        C436   1.280       .  A
O427       Cu432   2.009       .  S
O427        C436   1.278       .  A
O428       Cu432   2.015   1_556  S
O428        C435   1.278       .  A
O429       Cu432   2.006   1_655  S
O429        C434   1.277       .  A
O430       Cu432   2.000       .  S
O430        C433   1.276       .  A
Cu431      Cu432   2.373       .  S
C433        C769   1.477       .  S
C434        C801   1.473       .  S
C435        C609   1.479       .  S
C436        C545   1.487       .  S
O437       Cu445   2.022       .  S
O437        C447   1.279       .  A
O438       Cu445   2.020   1_655  S
O438        C448   1.279       .  A
O439       Cu445   2.018   1_545  S
O439        C449   1.279       .  A
O440       Cu445   2.025       .  S
O440        C450   1.279       .  A
O441       Cu446   2.015       .  S
O441        C450   1.278       .  A
O442       Cu446   2.019   1_545  S
O442        C449   1.278       .  A
O443       Cu446   2.027   1_655  S
O443        C448   1.280       .  A
O444       Cu446   2.026       .  S
O444        C447   1.281       .  A
Cu445      Cu446   2.368       .  S
C447        C657   1.498       .  S
C448        C625   1.490       .  S
C449        C497   1.485       .  S
C450        C529   1.484       .  S
O451       Cu459   2.018       .  S
O451        C461   1.279       .  A
O452       Cu459   2.012   1_545  S
O452        C462   1.278       .  A
O453       Cu459   2.006       .  S
O453        C463   1.277       .  A
O454       Cu459   2.006   1_655  S
O454        C464   1.276       .  A
O455       Cu460   2.023   1_655  S
O455        C464   1.279       .  A
O456       Cu460   2.016       .  S
O456        C463   1.279       .  A
O457       Cu460   2.021   1_545  S
O457        C462   1.279       .  A
O458       Cu460   2.012       .  S
O458        C461   1.277       .  A
Cu459      Cu460   2.374       .  S
C461        C593   1.476       .  S
C462        C574   1.485       .  S
C463        C705   1.476       .  S
C464        C721   1.477       .  S
O465       Cu473   2.021       .  S
O465        C475   1.280       .  A
O466       Cu473   2.027   1_544  S
O466        C476   1.280   1_554  A
O467       Cu473   2.008       .  S
O467        C477   1.276       .  A
O468       Cu473   2.014   1_554  S
O468        C478   1.277       .  A
O469       Cu474   2.032   1_554  S
O469        C478   1.280       .  A
O470       Cu474   2.011       .  S
O470        C477   1.278       .  A
O471       Cu474   2.024   1_545  S
O471        C476   1.280       .  A
O472       Cu474   2.016       .  S
O472        C475   1.278       .  A
Cu473      Cu474   2.370       .  S
C475        C785   1.489       .  S
C476        C865   1.497       .  S
C477        C737   1.476       .  S
C478        C638   1.483       .  S
O479       Cu487   2.001   1_554  S
O479        C489   1.275       .  A
O480       Cu487   2.013       .  S
O480        C490   1.278       .  A
O481       Cu487   2.016       .  S
O481        C491   1.279       .  A
O482       Cu487   2.016   1_544  S
O482        C492   1.278       .  A
O483       Cu488   2.023   1_544  S
O483        C492   1.279       .  A
O484       Cu488   2.010       .  S
O484        C491   1.277       .  A
O485       Cu488   2.019       .  S
O485        C490   1.278       .  A
O486       Cu488   2.024   1_554  S
O486        C489   1.281       .  A
Cu487      Cu488   2.372       .  S
C489        C670   1.489       .  S
C490        C689   1.477       .  S
C491        C753   1.479       .  S
C492        C830   1.482       .  S
C493        C494   1.401       .  A
C493        C498   1.404       .  A
C493        H500   1.084       .  S
C494        C495   1.418       .  A
C495        C496   1.405       .  A
C495        C502   1.509   1_455  S
C496        C497   1.403       .  A
C496        H501   1.085   1_455  S
C497        C498   1.415       .  A
C498        C499   1.503       .  S
C499        H503   1.111       .  S
C499        H504   1.109       .  S
C499        H505   1.109       .  S
C502        H506   1.107       .  S
C502        H507   1.111       .  S
C502        H508   1.110       .  S
C509        C510   1.404       .  A
C509        C514   1.408       .  A
C509        H516   1.084       .  S
C510        C511   1.414       .  A
C511        C512   1.403       .  A
C511        C518   1.502   1_455  S
C512        C513   1.401       .  A
C512        H517   1.084   1_455  S
C513        C514   1.414       .  A
C514        C515   1.506       .  S
C515        H519   1.111       .  S
C515        H520   1.109       .  S
C515        H521   1.110       .  S
C518        H522   1.110       .  S
C518        H523   1.109       .  S
C518        H524   1.111       .  S
C525        C526   1.405   1_655  A
C525        C530   1.408       .  A
C525        H532   1.084       .  S
C526        C527   1.415       .  A
C527        C528   1.406       .  A
C527        C534   1.504       .  S
C528        C529   1.403       .  A
C528        H533   1.084       .  S
C529        C530   1.414   1_455  A
C530        C531   1.506       .  S
C531        H535   1.111       .  S
C531        H536   1.109       .  S
C531        H537   1.111       .  S
C534        H538   1.110       .  S
C534        H539   1.105       .  S
C534        H540   1.111       .  S
C541        C542   1.408       .  A
C541        C546   1.406       .  A
C541        H548   1.084       .  S
C542        C543   1.417       .  A
C543        C544   1.404       .  A
C543        C550   1.508   1_455  S
C544        C545   1.405       .  A
C544        H549   1.084   1_455  S
C545        C546   1.415       .  A
C546        C547   1.508       .  S
C547        H551   1.111       .  S
C547        H552   1.111       .  S
C547        H553   1.109       .  S
C550        H554   1.107       .  S
C550        H555   1.111       .  S
C550        H556   1.111       .  S
C557        C558   1.405       .  A
C557        C562   1.405       .  A
C557        H564   1.084       .  S
C558        C559   1.415       .  A
C559        C560   1.402       .  A
C559        C566   1.508   1_455  S
C560        C561   1.404       .  A
C560        H565   1.085   1_455  S
C561        C562   1.416       .  A
C562        C563   1.508       .  S
C563        H567   1.111       .  S
C563        H568   1.109       .  S
C563        H569   1.110       .  S
C566        H570   1.110       .  S
C566        H571   1.107       .  S
C566        H572   1.111       .  S
C573        C574   1.405       .  A
C573        C578   1.405       .  A
C573        H580   1.085       .  S
C574        C575   1.416   1_455  A
C575        C576   1.405   1_655  A
C575        C582   1.507       .  S
C576        C577   1.405       .  A
C576        H581   1.084   1_455  S
C577        C578   1.418       .  A
C578        C579   1.509       .  S
C579        H583   1.111       .  S
C579        H584   1.106       .  S
C579        H585   1.110       .  S
C582        H586   1.109       .  S
C582        H587   1.108       .  S
C582        H588   1.111       .  S
C589        C590   1.404       .  A
C589        C594   1.406       .  A
C589        H596   1.084   1_455  S
C590        C591   1.412       .  A
C591        C592   1.406       .  A
C591        C598   1.506       .  S
C592        C593   1.403       .  A
C592        H597   1.084       .  S
C593        C594   1.412       .  A
C594        C595   1.506   1_455  S
C595        H599   1.111       .  S
C595        H600   1.110       .  S
C595        H601   1.110       .  S
C598        H602   1.111       .  S
C598        H603   1.110       .  S
C598        H604   1.111       .  S
C605        C606   1.405       .  A
C605        C610   1.407       .  A
C605        H612   1.084   1_455  S
C606        C607   1.411       .  A
C607        C608   1.404       .  A
C607        C614   1.507       .  S
C608        C609   1.404       .  A
C608        H613   1.084       .  S
C609        C610   1.413       .  A
C610        C611   1.506   1_455  S
C611        H615   1.111       .  S
C611        H616   1.111       .  S
C611        H617   1.110       .  S
C614        H618   1.109       .  S
C614        H619   1.111       .  S
C614        H620   1.111       .  S
C621        C622   1.406       .  A
C621        C626   1.407       .  A
C621        H628   1.084       .  S
C622        C623   1.416   1_565  A
C623        C624   1.407       .  A
C623        C630   1.507       .  S
C624        C625   1.406   1_545  A
C624        H629   1.084       .  S
C625        C626   1.416       .  A
C626        C627   1.507       .  S
C627        H631   1.111       .  S
C627        H632   1.110       .  S
C627        H633   1.110       .  S
C630        H634   1.109       .  S
C630        H635   1.110       .  S
C630        H636   1.110       .  S
C637        C638   1.405       .  A
C637        C642   1.411       .  A
C637        H644   1.084       .  S
C638        C639   1.411       .  A
C639        C640   1.402       .  A
C639        C646   1.501   1_565  S
C640        C641   1.401       .  A
C640        H645   1.084   1_565  S
C641        C642   1.416       .  A
C642        C643   1.505       .  S
C643        H647   1.110       .  S
C643        H648   1.109       .  S
C643        H649   1.110       .  S
C646        H650   1.108       .  S
C646        H651   1.111       .  S
C646        H652   1.111       .  S
C653        C654   1.407       .  A
C653        C658   1.408       .  A
C653        H660   1.084       .  S
C654        C655   1.421       .  A
C655        C656   1.408       .  A
C655        C662   1.509       .  S
C656        C657   1.407       .  A
C656        H661   1.084       .  S
C657        C658   1.420       .  A
C658        C659   1.507       .  S
C659        H663   1.111       .  S
C659        H664   1.104   1_565  S
C659        H665   1.110       .  S
C662        H666   1.106       .  S
C662        H667   1.111       .  S
C662        H668   1.111       .  S
C669        C670   1.404       .  A
C669        C674   1.405       .  A
C669        H676   1.084       .  S
C670        C671   1.419       .  A
C671        C672   1.402       .  A
C671        C678   1.506       .  S
C672        C673   1.403       .  A
C672        H677   1.084       .  S
C673        C674   1.418       .  A
C674        C675   1.507       .  S
C675        H679   1.111       .  S
C675        H680   1.110       .  S
C675        H681   1.103       .  S
C678        H682   1.110       .  S
C678        H683   1.101   1_565  S
C678        H684   1.111       .  S
C685        C686   1.404       .  A
C685        C690   1.408       .  A
C685        H692   1.084       .  S
C686        C687   1.416   1_565  A
C687        C688   1.404       .  A
C687        C694   1.507       .  S
C688        C689   1.401   1_545  A
C688        H693   1.084       .  S
C689        C690   1.413       .  A
C690        C691   1.506       .  S
C691        H695   1.111       .  S
C691        H696   1.111       .  S
C691        H697   1.110       .  S
C694        H698   1.108       .  S
C694        H699   1.109       .  S
C694        H700   1.111       .  S
C701        C702   1.406       .  A
C701        C706   1.404       .  A
C701        H708   1.084   1_565  S
C702        C703   1.416       .  A
C703        C704   1.404       .  A
C703        C710   1.507       .  S
C704        C705   1.403       .  A
C704        H709   1.085       .  S
C705        C706   1.412       .  A
C706        C707   1.508   1_565  S
C707        H711   1.111       .  S
C707        H712   1.110       .  S
C707        H713   1.110       .  S
C710        H714   1.108       .  S
C710        H715   1.110       .  S
C710        H716   1.110       .  S
C717        C718   1.404       .  A
C717        C722   1.403       .  A
C717        H724   1.084   1_565  S
C718        C719   1.417       .  A
C719        C720   1.405       .  A
C719        C726   1.507       .  S
C720        C721   1.403       .  A
C720        H725   1.084       .  S
C721        C722   1.412       .  A
C722        C723   1.507   1_565  S
C723        H727   1.111       .  S
C723        H728   1.110       .  S
C723        H729   1.108       .  S
C726        H730   1.109       .  S
C726        H731   1.110       .  S
C726        H732   1.110       .  S
C733        C734   1.402   1_545  A
C733        C738   1.403       .  A
C733        H740   1.084       .  S
C734        C735   1.416       .  A
C735        C736   1.402       .  A
C735        C742   1.509       .  S
C736        C737   1.402       .  A
C736        H741   1.085       .  S
C737        C738   1.414   1_565  A
C738        C739   1.507       .  S
C739        H743   1.111       .  S
C739        H744   1.109       .  S
C739        H745   1.110       .  S
C742        H746   1.110       .  S
C742        H747   1.107       .  S
C742        H748   1.111       .  S
C749        C750   1.404   1_554  A
C749        C754   1.405       .  A
C749        H756   1.084       .  S
C750        C751   1.417       .  A
C751        C752   1.405       .  A
C751        C758   1.508       .  S
C752        C753   1.403       .  A
C752        H757   1.085       .  S
C753        C754   1.414   1_556  A
C754        C755   1.508       .  S
C755        H759   1.111       .  S
C755        H760   1.109       .  S
C755        H761   1.111       .  S
C758        H762   1.107       .  S
C758        H763   1.110       .  S
C758        H764   1.111       .  S
C765        C766   1.403   1_554  A
C765        C770   1.403       .  A
C765        H772   1.084       .  S
C766        C767   1.417       .  A
C767        C768   1.402       .  A
C767        C774   1.509       .  S
C768        C769   1.403   1_556  A
C768        H773   1.085       .  S
C769        C770   1.415       .  A
C770        C771   1.508       .  S
C771        H775   1.111       .  S
C771        H776   1.111       .  S
C771        H777   1.109       .  S
C774        H778   1.111       .  S
C774        H779   1.107       .  S
C774        H780   1.110       .  S
C781        C782   1.403       .  A
C781        C786   1.407       .  A
C781        H788   1.084       .  S
C782        C783   1.417   1_556  A
C783        C784   1.403       .  A
C783        C790   1.509       .  S
C784        C785   1.404   1_554  A
C784        H789   1.085       .  S
C785        C786   1.419       .  A
C786        C787   1.507       .  S
C787        H791   1.111       .  S
C787        H792   1.109       .  S
C787        H793   1.111       .  S
C790        H794   1.106       .  S
C790        H795   1.111       .  S
C790        H796   1.110       .  S
C797        C798   1.399       .  A
C797        C802   1.402       .  A
C797        H804   1.084       .  S
C798        C799   1.419   1_554  A
C799        C800   1.404       .  A
C799        C806   1.509       .  S
C800        C801   1.400   1_556  A
C800        H805   1.085       .  S
C801        C802   1.413       .  A
C802        C803   1.505       .  S
C803        H807   1.111       .  S
C803        H808   1.110       .  S
C803        H809   1.109       .  S
C806        H810   1.108       .  S
C806        H811   1.110       .  S
C806        H812   1.110       .  S
C813        C814   1.403       .  A
C813        C818   1.407       .  A
C813        H820   1.084       .  S
C814        C815   1.417   1_556  A
C815        C816   1.401       .  A
C815        C822   1.509       .  S
C816        C817   1.400   1_554  A
C816        H821   1.085       .  S
C817        C818   1.415       .  A
C818        C819   1.506       .  S
C819        H823   1.111       .  S
C819        H824   1.109       .  S
C819        H825   1.109       .  S
C822        H826   1.108       .  S
C822        H827   1.111       .  S
C822        H828   1.110       .  S
C829        C830   1.402   1_556  A
C829        C834   1.406       .  A
C829        H836   1.084       .  S
C830        C831   1.414       .  A
C831        C832   1.403       .  A
C831        C838   1.500       .  S
C832        C833   1.399       .  A
C832        H837   1.084       .  S
C833        C834   1.417   1_554  A
C834        C835   1.508       .  S
C835        H839   1.110       .  S
C835        H840   1.110       .  S
C835        H841   1.108       .  S
C838        H842   1.111       .  S
C838        H843   1.109       .  S
C838        H844   1.111       .  S
C845        C846   1.407   1_554  A
C845        C850   1.404       .  A
C845        H852   1.084       .  S
C846        C847   1.418       .  A
C847        C848   1.404       .  A
C847        C854   1.508       .  S
C848        C849   1.406       .  A
C848        H853   1.085       .  S
C849        C850   1.415   1_556  A
C850        C851   1.505       .  S
C851        H855   1.111       .  S
C851        H856   1.110       .  S
C851        H857   1.103       .  S
C854        H858   1.107       .  S
C854        H859   1.110       .  S
C854        H860   1.111       .  S
C861        C862   1.407       .  A
C861        C866   1.406       .  A
C861        H868   1.084       .  S
C862        C863   1.420   1_554  A
C863        C864   1.410       .  A
C863        C870   1.508       .  S
C864        C865   1.408       .  A
C864        H869   1.084       .  S
C865        C866   1.417   1_556  A
C866        C867   1.504       .  S
C867        H871   1.110       .  S
C867        H872   1.111       .  S
C867        H873   1.102       .  S
C870        H874   1.110       .  S
C870        H875   1.107       .  S
C870        H876   1.111       .  S
