geometry optimzed in LAMMPS
_audit_creation_date              2020-12-01 
_audit_creation_method            'lammps2cif' 
_symmetry_space_group_name_H-M    'P1' 
_symmetry_Int_Tables_number       1 
_symmetry_cell_setting            triclinic 
loop_ 
_symmetry_equiv_pos_as_xyz 
  x,y,z 
_cell_length_a                    31.83551901 
_cell_length_b                    31.495691380288232 
_cell_length_c                    31.940836278394833 
_cell_angle_alpha                 89.90247994950046 
_cell_angle_beta                  90.02440791983888 
_cell_angle_gamma                 89.93951409208428 
loop_ 
_atom_site_label 
_atom_site_type_symbol 
_atom_site_fract_x 
_atom_site_fract_y 
_atom_site_fract_z 
_atom_site_charge 
Fe1        Fe  0.09425347  0.59818203  0.23962757     1.65800
Fe2        Fe  0.19850957  0.62102137  0.24949559     1.73200
Fe3        Fe  0.12464307  0.70149685  0.25109799     1.54400
O4          O  0.08224950  0.70036037  0.20210987    -0.81600
O5          O  0.21382625  0.66248976  0.29733203    -0.79900
O6          O  0.06433951  0.63255919  0.19385263    -0.84100
O7          O  0.05754579  0.62455362  0.28542958    -0.79000
O8          O  0.17046912  0.71796008  0.20824117    -0.80800
O9          O  0.18606818  0.57552632  0.29463468    -0.83500
C10         C  0.05360566  0.66025313  0.30328925     0.97300
C11         C  0.06204872  0.67132211  0.18361638     1.04700
O12         O  0.13917160  0.64030316  0.24682212    -1.12500
O13         O  0.19313922  0.57628452  0.20164462    -0.74900
O14         O  0.12462935  0.56681362  0.19245911    -0.78400
O15         O  0.07693590  0.69171556  0.29442294    -0.79100
C16         C  0.16238820  0.55988945  0.18226190     0.96200
O17         O  0.11894917  0.55837161  0.28455833    -0.77100
O18         O  0.21661962  0.66462780  0.20474609    -0.82300
C19         C  0.19877344  0.69602432  0.31334227     0.98800
C20         C  0.20326304  0.70081300  0.19304239     1.04700
O21         O  0.16483155  0.71240137  0.30031644    -0.77900
C22         C  0.15378805  0.55356751  0.30337480     1.03000
Fe23       Fe  0.39684213  0.88953170  0.00354162     1.65800
Fe24       Fe  0.29410720  0.86463384  0.50453155     1.73200
Fe25       Fe  0.36787616  0.78565538  0.49946697     1.54400
O26         O  0.41566801  0.79603975  0.45559489    -0.81600
O27         O  0.27972491  0.82470026  0.04992886    -0.79900
O28         O  0.41925431  0.86628796  0.44644579    -0.84100
O29         O  0.43795092  0.85246485  0.03704710    -0.79000
O30         O  0.32751116  0.77527227  0.45042074    -0.80800
O31         O  0.30483495  0.91277293  0.04670192    -0.83500
C32         C  0.43796141  0.81619348  0.05408218     0.97300
C33         C  0.42823462  0.82868238  0.43553332     1.04700
O34         O  0.35283798  0.84596303  0.50207768    -1.12500
O35         O  0.30059565  0.90671211  0.45509143    -0.74900
O36         O  0.36325908  0.93328929  0.46965216    -0.78400
O37         O  0.40955803  0.78906192  0.04694941    -0.79100
C38         C  0.32858582  0.93488481  0.45025367     0.96200
O39         O  0.37386785  0.91285833  0.05876839    -0.77100
O40         O  0.27390722  0.81914822  0.46187323    -0.82300
C41         C  0.29147869  0.78717651  0.05873033     0.98800
C42         C  0.29063395  0.78828892  0.44232187     1.04700
O43         O  0.32178817  0.76892654  0.03998200    -0.77900
C44         C  0.33671129  0.92402376  0.06811869     1.03000
Fe45       Fe  0.89787320  0.60173241  0.50307716     1.65800
Fe46       Fe  0.79484426  0.62543950  0.50231877     1.73200
Fe47       Fe  0.86666243  0.70613466  0.00209245     1.54400
O48         O  0.90962117  0.70058345  0.05034541    -0.81600
O49         O  0.77461402  0.67109979  0.45983586    -0.79900
O50         O  0.93939461  0.63909101  0.03485397    -0.84100
O51         O  0.92143187  0.62290264  0.44745930    -0.79000
O52         O  0.82188300  0.72050252  0.04690981    -0.80800
O53         O  0.80319035  0.58429698  0.45237427    -0.83500
C54         C  0.92937664  0.66032304  0.43493303     0.97300
C55         C  0.93890601  0.67375430  0.05471492     1.04700
O56         O  0.85222638  0.64554885  0.00237133    -1.12500
O57         O  0.80695967  0.57712941  0.04600618    -0.74900
O58         O  0.87635662  0.57747120  0.05642126    -0.78400
O59         O  0.91571414  0.69342968  0.45359315    -0.79100
C60         C  0.83954543  0.56568055  0.06639256     0.96200
O61         O  0.86437959  0.55651405  0.47061225    -0.77100
O62         O  0.77980794  0.66420898  0.05389908    -0.82300
C63         C  0.79090456  0.70238851  0.44064493     0.98800
C64         C  0.79195365  0.70091984  0.06489584     1.04700
O65         O  0.82769776  0.71547574  0.44877247    -0.77900
C66         C  0.83135364  0.55606289  0.44845396     1.03000
Fe67       Fe  0.59168652  0.89320115  0.24074045     1.65800
Fe68       Fe  0.69599716  0.86993127  0.24972798     1.73200
Fe69       Fe  0.62182932  0.78977475  0.25187094     1.54400
O70         O  0.57621264  0.79982968  0.29682781    -0.81600
O71         O  0.71337017  0.82568798  0.20540486    -0.79900
O72         O  0.55584145  0.86684784  0.28728442    -0.84100
O73         O  0.56090970  0.85952534  0.19557667    -0.79000
O74         O  0.66393962  0.77777309  0.29942547    -0.80800
O75         O  0.68996714  0.91376724  0.20161398    -0.83500
C76         C  0.55757011  0.82084434  0.18584276     0.97300
C77         C  0.55291734  0.83128307  0.30573471     1.04700
O78         O  0.63657078  0.85090393  0.24762331    -1.12500
O79         O  0.68458369  0.91679715  0.29391522    -0.74900
O80         O  0.61722587  0.93294540  0.28461151    -0.78400
O81         O  0.57733271  0.79146419  0.20449364    -0.79100
C82         C  0.65243169  0.93931543  0.30200643     0.96200
O83         O  0.62141339  0.92423414  0.19295549    -0.77100
O84         O  0.71182670  0.82895993  0.29778371    -0.82300
C85         C  0.69875580  0.79052224  0.19242494     0.98800
C86         C  0.69757179  0.79452440  0.31267174     1.04700
O87         O  0.66575371  0.77365680  0.20734063    -0.77900
C88         C  0.65920058  0.93061229  0.18265458     1.03000
Fe89       Fe  0.08936700  0.38951769  0.49586536     1.65800
Fe90       Fe  0.19519045  0.36367737  0.99679397     1.73200
Fe91       Fe  0.12071175  0.28558662  0.00098532     1.54400
O92         O  0.07170610  0.29583041  0.04396449    -0.81600
O93         O  0.20719735  0.32631618  0.44956716    -0.79900
O94         O  0.06932651  0.36585085  0.05445689    -0.84100
O95         O  0.05048302  0.35368961  0.45845889    -0.79000
O96         O  0.16059863  0.27347245  0.05057067    -0.80800
O97         O  0.18264914  0.41435535  0.45469023    -0.83500
C98         C  0.05205055  0.31725858  0.44196203     0.97300
C99         C  0.05746139  0.32846611  0.06292305     1.04700
O100        O  0.13634471  0.34573052  0.99941995    -1.12500
O101        O  0.18956251  0.40403339  0.04753189    -0.74900
O102        O  0.12705453  0.43174972  0.03395469    -0.78400
O103        O  0.07889878  0.28952049  0.45221058    -0.79100
C104        C  0.16151167  0.43183169  0.05390608     0.96200
O105        O  0.11382497  0.41510827  0.44247938    -0.77100
O106        O  0.21499304  0.31639497  0.03844817    -0.82300
C107        C  0.19566049  0.28905517  0.43984062     0.98800
C108        C  0.19798821  0.28550251  0.05796965     1.04700
O109        O  0.16614184  0.26988185  0.45908605    -0.77900
C110        C  0.15092263  0.42613243  0.43335576     1.03000
Fe111      Fe  0.39392460  0.09552489  0.25833247     1.65800
Fe112      Fe  0.36485123  0.19879778  0.25081405     1.73200
Fe113      Fe  0.29078725  0.11976557  0.25153921     1.54400
O114        O  0.30156817  0.07840897  0.20236231    -0.81600
O115        O  0.31684555  0.21583634  0.29179202    -0.79900
O116        O  0.36339293  0.05214902  0.22110706    -0.84100
O117        O  0.36764736  0.07089657  0.31132517    -0.79000
O118        O  0.27322448  0.16578279  0.20804904    -0.80800
O119        O  0.40414554  0.19535679  0.30260912    -0.83500
C120        C  0.33028753  0.05899859  0.31811879     0.97300
C121        C  0.33084210  0.05135571  0.19825229     1.04700
O122        O  0.34976225  0.13832424  0.25337104    -1.12500
O123        O  0.41520425  0.18790463  0.20964166    -0.74900
O124        O  0.42331173  0.11756858  0.20612476    -0.78400
O125        O  0.29949508  0.07092819  0.29546133    -0.79100
C126        C  0.43247746  0.15482922  0.19417285     0.96200
O127        O  0.43259023  0.13136200  0.29578958    -0.77100
O128        O  0.32685359  0.21022480  0.19935384    -0.82300
C129        C  0.28644482  0.19695535  0.30995939     0.98800
C130        C  0.29023786  0.19738988  0.18992610     1.04700
O131        O  0.27514710  0.15959891  0.30014102    -0.77900
C132        C  0.43130480  0.16767506  0.31253778     1.03000
Fe133      Fe  0.59310011  0.10030689  0.49996600     1.65800
Fe134      Fe  0.62025092  0.20272650  0.00322564     1.73200
Fe135      Fe  0.69591641  0.12522061  0.99736822     1.54400
O136        O  0.68925622  0.08246330  0.04630256    -0.81600
O137        O  0.66756192  0.22072484  0.45777844    -0.79900
O138        O  0.62720970  0.05490984  0.03049467    -0.84100
O139        O  0.61544809  0.07383271  0.44621459    -0.79000
O140        O  0.71500105  0.17041339  0.04084909    -0.80800
O141        O  0.58126611  0.19739479  0.45060879    -0.83500
C142        C  0.65239351  0.06343991  0.43537874     0.97300
C143        C  0.66139707  0.05400669  0.05070461     1.04700
O144        O  0.63659774  0.14257361  0.99921968    -1.12500
O145        O  0.57367182  0.19025994  0.04792755    -0.74900
O146        O  0.56773425  0.11968288  0.05169798    -0.78400
O147        O  0.68502391  0.07700396  0.45427829    -0.79100
C148        C  0.55960259  0.15661425  0.06526560     0.96200
O149        O  0.55143531  0.13512878  0.46408136    -0.77100
O150        O  0.66106731  0.21378007  0.05191574    -0.82300
C151        C  0.69729918  0.20199999  0.43875643     0.98800
C152        C  0.69788380  0.20098590  0.06043644     1.04700
O153        O  0.70952384  0.16495030  0.44853828    -0.77900
C154        C  0.55329057  0.16968020  0.44390539     1.03000
Fe155      Fe  0.89729933  0.39168986  0.25592936     1.65800
Fe156      Fe  0.79335194  0.37082328  0.25110429     1.73200
Fe157      Fe  0.86486331  0.28944175  0.24977834     1.54400
O158        O  0.91421106  0.29821768  0.20759703    -0.81600
O159        O  0.77676126  0.33092557  0.29960453    -0.79900
O160        O  0.92395115  0.36831778  0.20280659    -0.84100
O161        O  0.93559432  0.35423119  0.29241832    -0.79000
O162        O  0.82601250  0.27942697  0.19925810    -0.80800
O163        O  0.80420143  0.41830166  0.29577146    -0.83500
C164        C  0.93294421  0.31823960  0.30978758     0.97300
C165        C  0.93040265  0.33072043  0.19016715     1.04700
O166        O  0.85168564  0.35041833  0.25222548    -1.12500
O167        O  0.80484451  0.41237089  0.20207535    -0.74900
O168        O  0.86774152  0.43666093  0.21947832    -0.78400
O169        O  0.90458623  0.29171342  0.30077737    -0.79100
C170        C  0.83481716  0.43845221  0.19726392     0.96200
O171        O  0.87285970  0.41721993  0.30951450    -0.77100
O172        O  0.77437112  0.32619512  0.20693545    -0.82300
C173        C  0.78770358  0.29340461  0.30947197     0.98800
C174        C  0.79028426  0.29397722  0.18896600     1.04700
O175        O  0.81748762  0.27388379  0.29123304    -0.77900
C176        C  0.83573878  0.42912116  0.31792777     1.03000
C177        C  0.70684876  0.26336505  0.10779138    -0.12200
C178        C  0.72173969  0.22376693  0.09382338     0.04800
C179        C  0.75961777  0.20801473  0.11101112    -0.07500
C180        C  0.78147180  0.23191973  0.14095853    -0.08300
C181        C  0.76622187  0.27125979  0.15553901    -0.02800
C182        C  0.72816396  0.28690451  0.13838045     0.04000
N183        N  0.71048202  0.32664125  0.15111489     0.66500
H184        H  0.67809503  0.27643802  0.09495070     0.15400
H185        H  0.81021642  0.21874020  0.15370272     0.15100
N186        N  0.77587826  0.16728802  0.09951106     0.74200
O187        O  0.70367019  0.35494124  0.12392528    -0.39200
O188        O  0.69236624  0.32927397  0.18615758    -0.39200
O189        O  0.81209992  0.16435275  0.08373050    -0.39900
O190        O  0.75677474  0.13403932  0.11064891    -0.39900
C191        C  0.71840842  0.26947379  0.40382648    -0.12200
C192        C  0.71914876  0.22484697  0.40445512     0.04800
C193        C  0.74248594  0.20313482  0.37351896    -0.07500
C194        C  0.76508149  0.22616620  0.34359281    -0.08300
C195        C  0.76458011  0.27078707  0.34308747    -0.02800
C196        C  0.74112492  0.29253374  0.37392179     0.04000
N197        N  0.74165134  0.33789441  0.37668902     0.66500
H198        H  0.70135111  0.28675617  0.42771342     0.15400
H199        H  0.78223822  0.20881714  0.31982234     0.15100
N200        N  0.74238456  0.15775375  0.37099480     0.74200
O201        O  0.70775398  0.35855960  0.37425484    -0.39200
O202        O  0.77511663  0.35682804  0.38664932    -0.39200
O203        O  0.70913545  0.13842474  0.36105945    -0.39900
O204        O  0.77640080  0.13737939  0.37411507    -0.39900
C205        C  0.49591051  0.12551806  0.16019162    -0.12200
C206        C  0.46621682  0.15850297  0.16230094     0.04800
C207        C  0.47030429  0.19340973  0.13479418    -0.07500
C208        C  0.50288751  0.19386162  0.10506022    -0.08300
C209        C  0.53121361  0.15972457  0.10185879    -0.02800
C210        C  0.52831291  0.12589432  0.13083450     0.04000
N211        N  0.55820530  0.09174203  0.13111324     0.66500
H212        H  0.49440129  0.09917630  0.18202298     0.15400
H213        H  0.50436985  0.21972299  0.08269256     0.15100
N214        N  0.44000709  0.22694537  0.13447115     0.74200
O215        O  0.59695735  0.09955105  0.13435682    -0.39200
O216        O  0.54575919  0.05369847  0.13168787    -0.39200
O217        O  0.45167316  0.26486891  0.13952254    -0.39900
O218        O  0.40277226  0.21937911  0.12320721    -0.39900
C219        C  0.53542444  0.17170680  0.36874764    -0.12200
C220        C  0.52239832  0.17643572  0.41033604     0.04800
C221        C  0.47949182  0.18288198  0.41921939    -0.07500
C222        C  0.45014660  0.18393844  0.38638479    -0.08300
C223        C  0.46296477  0.17684916  0.34495062    -0.02800
C224        C  0.50605134  0.17137210  0.33614034     0.04000
N225        N  0.52012530  0.16388958  0.29427860     0.66500
H226        H  0.56831569  0.16626635  0.36175899     0.15400
H227        H  0.41702970  0.18719225  0.39356658     0.15100
N228        N  0.46519757  0.18647042  0.46150975     0.74200
O229        O  0.52250735  0.19430859  0.26863558    -0.39200
O230        O  0.53280972  0.12747342  0.28372722    -0.39200
O231        O  0.45163719  0.22156700  0.47488581    -0.39900
O232        O  0.46199110  0.15370102  0.48407529    -0.39900
C233        C  0.99234703  0.35638918  0.09327542    -0.12200
C234        C  0.02330197  0.32465514  0.09381700     0.04800
C235        C  0.02063078  0.29164936  0.12350765    -0.07500
C236        C  0.98828543  0.29222210  0.15345123    -0.08300
C237        C  0.95874718  0.32546740  0.15407531    -0.02800
C238        C  0.96009635  0.35692341  0.12261746     0.04000
N239        N  0.92890934  0.38971372  0.12010504     0.66500
H240        H  0.99307135  0.38110680  0.06960680     0.15400
H241        H  0.98779788  0.26814317  0.17771882     0.15100
N242        N  0.05234370  0.25963395  0.12589140     0.74200
O243        O  0.93977978  0.42824536  0.11965891    -0.39200
O244        O  0.89075943  0.38013517  0.11502715    -0.39200
O245        O  0.08645430  0.26740646  0.14447275    -0.39900
O246        O  0.04411385  0.22216047  0.11469545    -0.39900
C247        C  0.95048002  0.30101263  0.38343995    -0.12200
C248        C  0.96402684  0.30810561  0.34224585     0.04800
C249        C  0.00726386  0.31254444  0.33385493    -0.07500
C250        C  0.03606033  0.31200154  0.36686590    -0.08300
C251        C  0.02224901  0.30819238  0.40824637    -0.02800
C252        C  0.97932034  0.30168773  0.41658894     0.04000
N253        N  0.96453091  0.29770669  0.45864700     0.66500
H254        H  0.91724016  0.29808672  0.39017454     0.15400
H255        H  0.06911550  0.31649529  0.36034677     0.15100
N256        N  0.02205526  0.31923380  0.29207749     0.74200
O257        O  0.95600590  0.33049124  0.47965988    -0.39200
O258        O  0.95627298  0.26148940  0.47341513    -0.39200
O259        O  0.03848774  0.35424123  0.28203113    -0.39900
O260        O  0.02143374  0.28915256  0.26604538    -0.39900
C261        C  0.20061345  0.24309357  0.12408840    -0.12200
C262        C  0.22238513  0.26256937  0.09094892     0.04800
C263        C  0.26682155  0.26031706  0.09059876    -0.07500
C264        C  0.28811582  0.23993276  0.12361619    -0.08300
C265        C  0.26629637  0.22039193  0.15668428    -0.02800
C266        C  0.22187471  0.22271470  0.15703835     0.04000
N267        N  0.19790066  0.20676897  0.19167755     0.66500
H268        H  0.16667915  0.24503102  0.12526127     0.15400
H269        H  0.32202670  0.23801620  0.12256332     0.15100
N270        N  0.29074964  0.27636228  0.05598278     0.74200
O271        O  0.20586358  0.21932294  0.22835416    -0.39200
O272        O  0.16514596  0.18522080  0.18513549    -0.39200
O273        O  0.32349841  0.29791043  0.06254870    -0.39900
O274        O  0.28277552  0.26387179  0.01928707    -0.39900
C275        C  0.21070542  0.22295900  0.39933513    -0.12200
C276        C  0.21797708  0.26656214  0.40524950     0.04800
C277        C  0.24772670  0.28705449  0.37909374    -0.07500
C278        C  0.27006638  0.26354264  0.34921939    -0.08300
C279        C  0.26302363  0.21986674  0.34354583    -0.02800
C280        C  0.23277114  0.19958764  0.36920454     0.04000
N281        N  0.22459250  0.15505409  0.36600559     0.66500
H282        H  0.18832573  0.20634236  0.41894681     0.15400
H283        H  0.29240305  0.28009998  0.32951185     0.15100
N284        N  0.25494729  0.33188614  0.38134984     0.74200
O285        O  0.25076758  0.12869881  0.38045299    -0.39200
O286        O  0.18891679  0.14234077  0.35423842    -0.39200
O287        O  0.29171861  0.34575052  0.38685764    -0.39900
O288        O  0.22608001  0.35739756  0.37112948    -0.39900
C289        C  0.69077513  0.02611549  0.11796110    -0.12200
C290        C  0.66728774  0.01907435  0.08133009     0.04800
C291        C  0.64569834  0.98004724  0.07671708    -0.07500
C292        C  0.64532256  0.95073238  0.10950942    -0.08300
C293        C  0.66674011  0.95891077  0.14684176    -0.02800
C294        C  0.69059100  0.99632375  0.15070148     0.04000
N295        N  0.71128306  0.00629833  0.18913575     0.66500
H296        H  0.70725057  0.05586834  0.12227812     0.15400
H297        H  0.62719650  0.92178735  0.10620921     0.15100
N298        N  0.62327447  0.96990897  0.03924023     0.74200
O299        O  0.74905122  0.99550826  0.19468908    -0.39200
O300        O  0.69258667  0.02801869  0.21658213    -0.39200
O301        O  0.64154046  0.94932385  0.01069631    -0.39900
O302        O  0.58377643  0.97327363  0.03855462    -0.39900
C303        C  0.68929175  0.97588573  0.36135389    -0.12200
C304        C  0.65531303  0.97426510  0.33318122     0.04800
C305        C  0.62315574  0.00521466  0.33664343    -0.07500
C306        C  0.62373064  0.03402120  0.36972726    -0.08300
C307        C  0.65632523  0.03418623  0.39927243    -0.02800
C308        C  0.69015400  0.00556111  0.39418099     0.04000
N309        N  0.72454173  0.00472667  0.42300764     0.66500
H310        H  0.71455695  0.95293889  0.35899886     0.15400
H311        H  0.59835075  0.05688237  0.37204744     0.15100
N312        N  0.58990470  0.00851559  0.30653871     0.74200
O313        O  0.71920943  0.99068291  0.45963419    -0.39200
O314        O  0.76125177  0.01242686  0.41022037    -0.39200
O315        O  0.55211001  0.00764658  0.31844564    -0.39900
O316        O  0.59823787  0.01807022  0.26905173    -0.39900
C317        C  0.80514166  0.50342006  0.10033673    -0.12200
C318        C  0.83488896  0.53624548  0.10224593     0.04800
C319        C  0.86237754  0.53817712  0.13679770    -0.07500
C320        C  0.86109310  0.50649931  0.16744873    -0.08300
C321        C  0.83258798  0.47244136  0.16486954    -0.02800
C322        C  0.80402799  0.47140214  0.13096021     0.04000
N323        N  0.77544511  0.43688975  0.12565409     0.66500
H324        H  0.78412405  0.50127561  0.07372359     0.15400
H325        H  0.88273631  0.50875738  0.19354195     0.15100
N326        N  0.89130790  0.57259010  0.14160302     0.74200
O327        O  0.73642568  0.44342394  0.12821020    -0.39200
O328        O  0.78872887  0.40172841  0.11211140    -0.39200
O329        O  0.87794256  0.60903739  0.15119428    -0.39900
O330        O  0.93034898  0.56574703  0.14024854    -0.39900
C331        C  0.85553026  0.48693532  0.41979694    -0.12200
C332        C  0.82726491  0.52122869  0.41717185     0.04800
C333        C  0.79840167  0.52225993  0.38349747    -0.07500
C334        C  0.79991463  0.49066086  0.35244079    -0.08300
C335        C  0.82983970  0.45782999  0.35422063    -0.02800
C336        C  0.85696144  0.45551384  0.38908640     0.04000
N337        N  0.88637558  0.42141922  0.39375669     0.66500
H338        H  0.87734436  0.48453608  0.44574794     0.15400
H339        H  0.77889219  0.49296914  0.32584140     0.15100
N340        N  0.76893558  0.55621517  0.37908251     0.74200
O341        O  0.92531498  0.42885737  0.39292850    -0.39200
O342        O  0.87351653  0.38474148  0.40317091    -0.39200
O343        O  0.77684884  0.58675882  0.35472630    -0.39900
O344        O  0.73317756  0.55340167  0.39587530    -0.39900
C345        C  0.78667461  0.75556200  0.38271230    -0.12200
C346        C  0.76624131  0.72523081  0.40786395     0.04800
C347        C  0.72264295  0.71872765  0.40188255    -0.07500
C348        C  0.70089893  0.74210420  0.37139805    -0.08300
C349        C  0.72150228  0.77210833  0.34608688    -0.02800
C350        C  0.76502323  0.77859268  0.35201075     0.04000
N351        N  0.78827823  0.80700986  0.32589735     0.66500
H352        H  0.82006849  0.76111665  0.38626576     0.15400
H353        H  0.66754752  0.73651787  0.36748041     0.15100
N354        N  0.69964164  0.68899534  0.42673857     0.74200
O355        O  0.80158822  0.84164921  0.34057550    -0.39200
O356        O  0.79989841  0.79520746  0.28997742    -0.39200
O357        O  0.67598171  0.70220229  0.45561505    -0.39900
O358        O  0.69770173  0.65063062  0.41557865    -0.39900
C359        C  0.72582970  0.71531282  0.10337319    -0.12200
C360        C  0.76911669  0.72240544  0.09913512     0.04800
C361        C  0.78899920  0.75200242  0.12567741    -0.07500
C362        C  0.76517393  0.77470040  0.15485804    -0.08300
C363        C  0.72179266  0.76786232  0.15898310    -0.02800
C364        C  0.70190270  0.73799627  0.13252289     0.04000
N365        N  0.65728568  0.73184563  0.13322393     0.66500
H366        H  0.71004780  0.69334344  0.08256581     0.15400
H367        H  0.78109774  0.79658286  0.17564282     0.15100
N368        N  0.83367207  0.75710690  0.12542792     0.74200
O369        O  0.63301561  0.76293006  0.12690303    -0.39200
O370        O  0.64233101  0.69475268  0.13409002    -0.39200
O371        O  0.84964862  0.79376565  0.12595083    -0.39900
O372        O  0.85691093  0.72512969  0.13096541    -0.39900
C373        C  0.30025049  0.98478190  0.10267901    -0.12200
C374        C  0.33095039  0.95270707  0.10435495     0.04800
C375        C  0.35904314  0.95164879  0.13848330    -0.07500
C376        C  0.35752647  0.98364081  0.16864187    -0.08300
C377        C  0.32837705  0.01722078  0.16609837    -0.02800
C378        C  0.29900725  0.01729157  0.13278473     0.04000
N379        N  0.26956302  0.05125392  0.12737311     0.66500
H380        H  0.27882270  0.98623775  0.07633899     0.15400
H381        H  0.37965847  0.98199430  0.19437472     0.15100
N382        N  0.38925124  0.91815637  0.14311803     0.74200
O383        O  0.28258611  0.08791073  0.11802961    -0.39200
O384        O  0.23083676  0.04317996  0.12467707    -0.39200
O385        O  0.42753034  0.92682602  0.14882568    -0.39900
O386        O  0.37726798  0.87999796  0.14482171    -0.39900
C387        C  0.34620988  0.03730993  0.39066269    -0.12200
C388        C  0.32349676  0.02989603  0.35382420     0.04800
C389        C  0.29763226  0.99359342  0.35116583    -0.07500
C390        C  0.29701023  0.96426315  0.38443434    -0.08300
C391        C  0.32215156  0.97032715  0.42015302    -0.02800
C392        C  0.34523319  0.00853790  0.42400485     0.04000
N393        N  0.36785627  0.01864474  0.46154910     0.66500
H394        H  0.36508827  0.06579791  0.39350018     0.15400
H395        H  0.27918177  0.93519416  0.38095052     0.15100
N396        N  0.27486818  0.98410988  0.31366237     0.74200
O397        O  0.40513802  0.03210383  0.45946409    -0.39200
O398        O  0.34923848  0.01827381  0.49644376    -0.39200
O399        O  0.29439390  0.97804839  0.27979915    -0.39900
O400        O  0.23601467  0.97641589  0.31543353    -0.39900
C401        C  0.46294694  0.78714542  0.12238533    -0.12200
C402        C  0.47215770  0.80697524  0.08404050     0.04800
C403        C  0.51244094  0.82480677  0.07771951    -0.07500
C404        C  0.54049490  0.82719327  0.11128050    -0.08300
C405        C  0.52991497  0.81071565  0.15053817    -0.02800
C406        C  0.49148649  0.78914990  0.15591442     0.04000
N407        N  0.47945184  0.77267695  0.19598961     0.66500
H408        H  0.43213686  0.77350021  0.12753106     0.15400
H409        H  0.57055332  0.84276979  0.10699125     0.15100
N410        N  0.52484593  0.84132647  0.03763020     0.74200
O411        O  0.47738984  0.79702359  0.22728218    -0.39200
O412        O  0.46625216  0.73503879  0.19913416    -0.39200
O413        O  0.54627100  0.87495437  0.03526551    -0.39900
O414        O  0.51755497  0.82039376  0.00474485    -0.39900
C415        C  0.48455537  0.85351445  0.33508331    -0.12200
C416        C  0.51985151  0.82687378  0.33796591     0.04800
C417        C  0.52215017  0.79697198  0.37096082    -0.07500
C418        C  0.48989767  0.79529286  0.40087420    -0.08300
C419        C  0.45596280  0.82371945  0.39899457    -0.02800
C420        C  0.45274720  0.85207936  0.36497782     0.04000
N421        N  0.41724557  0.87968145  0.36044641     0.66500
H422        H  0.48143897  0.87569988  0.30928404     0.15400
H423        H  0.49295781  0.77385787  0.42727779     0.15100
N424        N  0.55839045  0.77065278  0.37651421     0.74200
O425        O  0.42228209  0.91942253  0.35990258    -0.39200
O426        O  0.38134184  0.86429756  0.35342765    -0.39200
O427        O  0.59291917  0.78711546  0.38711878    -0.39900
O428        O  0.55468519  0.73077079  0.37625809    -0.39900
C429        C  0.14364093  0.50320314  0.08043781    -0.12200
C430        C  0.16788046  0.46626198  0.08507401     0.04800
C431        C  0.19557618  0.46319098  0.11972118    -0.07500
C432        C  0.19639278  0.49589918  0.14987492    -0.08300
C433        C  0.16952865  0.53116115  0.14631872    -0.02800
C434        C  0.14427503  0.53519726  0.11041023     0.04000
N435        N  0.11883913  0.57192931  0.10395780     0.66500
H436        H  0.12330993  0.50723184  0.05348442     0.15400
H437        H  0.21573371  0.49221950  0.17757086     0.15100
N438        N  0.22070320  0.42608888  0.12640917     0.74200
O439        O  0.13549824  0.60523374  0.08960383    -0.39200
O440        O  0.07934983  0.56861797  0.10487135    -0.39200
O441        O  0.26002132  0.42949662  0.13010987    -0.39900
O442        O  0.20329583  0.39099516  0.13434941    -0.39900
C443        C  0.12891472  0.48533397  0.33286540    -0.12200
C444        C  0.15625598  0.52014251  0.33609547     0.04800
C445        C  0.18512474  0.52150815  0.36984205    -0.07500
C446        C  0.18512392  0.48879350  0.39986171    -0.08300
C447        C  0.15637701  0.45516716  0.39734606    -0.02800
C448        C  0.12906519  0.45289251  0.36266676     0.04000
N449        N  0.10226204  0.41698120  0.35660318     0.66500
H450        H  0.10759599  0.48280813  0.30651897     0.15400
H451        H  0.20583552  0.49113397  0.42669362     0.15100
N452        N  0.21268720  0.55692446  0.37572359     0.74200
O453        O  0.06312130  0.42201721  0.35266019    -0.39200
O454        O  0.11824421  0.38082964  0.35057843    -0.39200
O455        O  0.19768126  0.59383793  0.37953214    -0.39900
O456        O  0.25098985  0.55059372  0.38383823    -0.39900
C457        C  0.04408490  0.66604678  0.10906451    -0.12200
C458        C  0.03428200  0.68222949  0.14857850     0.04800
C459        C  0.99498192  0.70134345  0.15536967    -0.07500
C460        C  0.96478789  0.70108402  0.12332788    -0.08300
C461        C  0.97341246  0.68161636  0.08468333    -0.02800
C462        C  0.01407016  0.66543831  0.07718343     0.04000
N463        N  0.02510373  0.64703265  0.03776346     0.66500
H464        H  0.07428703  0.65263971  0.10358256     0.15400
H465        H  0.93431583  0.71383881  0.12947830     0.15100
N466        N  0.98413007  0.71795374  0.19559716     0.74200
O467        O  0.02840553  0.60725372  0.03440919    -0.39200
O468        O  0.03693508  0.67059780  0.00805271    -0.39200
O469        O  0.00249272  0.75053300  0.20943699    -0.39900
O470        O  0.95597573  0.70026598  0.21724139    -0.39900
C471        C  0.98793228  0.63338613  0.33570460    -0.12200
C472        C  0.01978953  0.66429847  0.33519735     0.04800
C473        C  0.01863151  0.69703452  0.36545049    -0.07500
C474        C  0.98736989  0.69686616  0.39650643    -0.08300
C475        C  0.95690507  0.66466297  0.39787924    -0.02800
C476        C  0.95652773  0.63350861  0.36616734     0.04000
N477        N  0.92430775  0.60178102  0.36438770     0.66500
H478        H  0.98712876  0.60874880  0.31207668     0.15400
H479        H  0.98815330  0.72086541  0.42076704     0.15100
N480        N  0.05010523  0.72931061  0.36653175     0.74200
O481        O  0.93399224  0.56292326  0.36329364    -0.39200
O482        O  0.88632557  0.61265770  0.36053289    -0.39200
O483        O  0.08095195  0.72570077  0.39110640    -0.39900
O484        O  0.04428727  0.76374588  0.34712244    -0.39900
C485        C  0.25113105  0.70003262  0.13133853    -0.12200
C486        C  0.22658437  0.72351957  0.15961546     0.04800
C487        C  0.22350445  0.76795426  0.15424428    -0.07500
C488        C  0.24442482  0.78771322  0.12102568    -0.08300
C489        C  0.26895448  0.76427584  0.09266398    -0.02800
C490        C  0.27181034  0.71977524  0.09788522     0.04000
N491        N  0.29387624  0.69383270  0.06848772     0.66500
H492        H  0.25322642  0.66581214  0.13431387     0.15400
H493        H  0.24206035  0.82191285  0.11804971     0.15100
N494        N  0.20043763  0.79378469  0.18299030     0.74200
O495        O  0.32708557  0.67491716  0.07941238    -0.39200
O496        O  0.27757060  0.68582410  0.03335437    -0.39200
O497        O  0.21502005  0.80081575  0.21906423    -0.39900
O498        O  0.16803101  0.81334942  0.17082603    -0.39900
C499        C  0.20548245  0.75615868  0.36397693    -0.12200
C500        C  0.22204266  0.71811443  0.34761063     0.04800
C501        C  0.26105804  0.70340928  0.36336864    -0.07500
C502        C  0.28224010  0.72681144  0.39403022    -0.08300
C503        C  0.26632170  0.76542070  0.40942459    -0.02800
C504        C  0.22720862  0.77999740  0.39404585     0.04000
N505        N  0.20940774  0.81938621  0.40762444     0.66500
H506        H  0.17578196  0.76840221  0.35257179     0.15400
H507        H  0.31190591  0.71455980  0.40551913     0.15100
N508        N  0.28029689  0.66518150  0.34852877     0.74200
O509        O  0.22610168  0.85398470  0.39662071    -0.39200
O510        O  0.17387646  0.81979193  0.42512947    -0.39200
O511        O  0.29700232  0.66473962  0.31270004    -0.39900
O512        O  0.28951013  0.63623854  0.37432603    -0.39900
Fe513      Fe  0.08813525  0.60121123  0.74306625     1.65800
Fe514      Fe  0.19320112  0.62118005  0.75029677     1.73200
Fe515      Fe  0.12201713  0.70373942  0.75186860     1.54400
O516        O  0.08094585  0.70308163  0.70187106    -0.81600
O517        O  0.21061511  0.66307439  0.79722815    -0.79900
O518        O  0.05699184  0.63671852  0.69881580    -0.84100
O519        O  0.05417688  0.62834880  0.79018261    -0.79000
O520        O  0.16897687  0.71888639  0.70991821    -0.80800
O521        O  0.18046713  0.57654889  0.79621473    -0.83500
C522        C  0.05024493  0.66518602  0.80553887     0.97300
C523        C  0.05768308  0.67478129  0.68605397     1.04700
O524        O  0.13447408  0.64211987  0.74853353    -1.12500
O525        O  0.18492658  0.57634565  0.70288441    -0.74900
O526        O  0.11593187  0.56972059  0.69462745    -0.78400
O527        O  0.07311082  0.69626408  0.79440527    -0.79100
C528        C  0.15320834  0.56145294  0.68375184     0.96200
O529        O  0.11327687  0.55983737  0.78666844    -0.77100
O530        O  0.21230838  0.66353340  0.70485194    -0.82300
C531        C  0.19615750  0.69676208  0.81355891     0.98800
C532        C  0.20083100  0.70063597  0.69414558     1.04700
O533        O  0.16185910  0.71326862  0.80155504    -0.77900
C534        C  0.14831612  0.55443907  0.80498229     1.03000
Fe535      Fe  0.39729974  0.88830783  0.50216157     1.65800
Fe536      Fe  0.29361581  0.86579187  0.00190176     1.73200
Fe537      Fe  0.36777577  0.78664060  0.99735514     1.54400
O538        O  0.41564312  0.79787655  0.95377147    -0.81600
O539        O  0.28147783  0.82458313  0.55363983    -0.79900
O540        O  0.42169387  0.86839389  0.94843008    -0.84100
O541        O  0.43995846  0.85120565  0.53453281    -0.79000
O542        O  0.32775658  0.77662944  0.94791288    -0.80800
O543        O  0.30725432  0.91226106  0.54827355    -0.83500
C544        C  0.43897432  0.81610339  0.55393745     0.97300
C545        C  0.42971597  0.83110265  0.93571831     1.04700
O546        O  0.35255635  0.84703255  0.00093825    -1.12500
O547        O  0.30172283  0.90882216  0.95343134    -0.74900
O548        O  0.36414369  0.93435147  0.97017312    -0.78400
O549        O  0.40950801  0.78964291  0.54892720    -0.79100
C550        C  0.33034656  0.93652351  0.94949793     0.96200
O551        O  0.37673856  0.91217643  0.55784427    -0.77100
O552        O  0.27452633  0.82126173  0.95804786    -0.82300
C553        C  0.29260326  0.78678647  0.56194318     0.98800
C554        C  0.29131310  0.79020446  0.93895743     1.04700
O555        O  0.32215667  0.76817374  0.54243767    -0.77900
C556        C  0.34001312  0.92363037  0.56836992     1.03000
Fe557      Fe  0.89711279  0.60347670  0.00134383     1.65800
Fe558      Fe  0.79363884  0.62606263  0.00357855     1.73200
Fe559      Fe  0.86816650  0.70449432  0.49781616     1.54400
O560        O  0.90961678  0.70064208  0.54736256    -0.81600
O561        O  0.77307606  0.67245734  0.96212410    -0.79900
O562        O  0.94009079  0.63857624  0.53548639    -0.84100
O563        O  0.91920278  0.62809123  0.94636500    -0.79000
O564        O  0.82253108  0.72160880  0.54123212    -0.80800
O565        O  0.80133496  0.58617631  0.95262238    -0.83500
C566        C  0.92679488  0.66626715  0.93596352     0.97300
C567        C  0.93850891  0.67389800  0.55408678     1.04700
O568        O  0.85344209  0.64424696  0.50092066    -1.12500
O569        O  0.80711057  0.57732614  0.54585622    -0.74900
O570        O  0.87588393  0.57927991  0.55912083    -0.78400
O571        O  0.91340457  0.69813378  0.95665887    -0.79100
C572        C  0.83893133  0.56719681  0.56798251     0.96200
O573        O  0.86393024  0.55948937  0.96735164    -0.77100
O574        O  0.78173626  0.66501081  0.55181162    -0.82300
C575        C  0.78888027  0.70517654  0.94492498     0.98800
C576        C  0.79339087  0.70244881  0.56097642     1.04700
O577        O  0.82503077  0.71909293  0.95449278    -0.77900
C578        C  0.82991691  0.55879058  0.94686508     1.03000
Fe579      Fe  0.59436418  0.89340637  0.73987222     1.65800
Fe580      Fe  0.69826961  0.86920766  0.74965768     1.73200
Fe581      Fe  0.62363934  0.78976881  0.75135911     1.54400
O582        O  0.57594237  0.80052505  0.79445556    -0.81600
O583        O  0.71506291  0.82633477  0.70382287    -0.79900
O584        O  0.55906155  0.86890353  0.78780309    -0.84100
O585        O  0.56181741  0.85916306  0.69626185    -0.79000
O586        O  0.66351687  0.77826703  0.80095512    -0.80800
O587        O  0.69249595  0.91478565  0.70313095    -0.83500
C588        C  0.56003167  0.82083353  0.68492605     0.97300
C589        C  0.55428182  0.83279528  0.80480457     1.04700
O590        O  0.63876816  0.85069692  0.74717994    -1.12500
O591        O  0.68702441  0.91464668  0.79522892    -0.74900
O592        O  0.62123894  0.93429494  0.78200389    -0.78400
O593        O  0.58141511  0.79160524  0.70198159    -0.79100
C594        C  0.65579926  0.93912342  0.80110883     0.96200
O595        O  0.62409698  0.92215823  0.69082445    -0.77100
O596        O  0.71400933  0.82662942  0.79637335    -0.82300
C597        C  0.70149562  0.79026919  0.69217685     0.98800
C598        C  0.69826604  0.79365344  0.81289893     1.04700
O599        O  0.66952016  0.77276485  0.70866401    -0.77900
C600        C  0.66207192  0.93020335  0.68253024     1.03000
Fe601      Fe  0.09241111  0.38870200  0.99982200     1.65800
Fe602      Fe  0.19307809  0.36607496  0.49855375     1.73200
Fe603      Fe  0.11982281  0.28643213  0.50210993     1.54400
O604        O  0.07115167  0.29645167  0.54535050    -0.81600
O605        O  0.20641260  0.32513653  0.94637864    -0.79900
O606        O  0.06116279  0.36661839  0.54835312    -0.84100
O607        O  0.04959589  0.35334907  0.96603576    -0.79000
O608        O  0.15971388  0.27555612  0.55158921    -0.80800
O609        O  0.18250282  0.41314243  0.95399490    -0.83500
C610        C  0.05126707  0.31914755  0.94534036     0.97300
C611        C  0.05347165  0.32923804  0.56088683     1.04700
O612        O  0.13413415  0.34710860  0.49908230    -1.12500
O613        O  0.18422008  0.40751979  0.54794297    -0.74900
O614        O  0.12072403  0.43250917  0.53319189    -0.78400
O615        O  0.08016875  0.29198485  0.95072635    -0.79100
C616        C  0.15473113  0.43392250  0.55392259     0.96200
O617        O  0.11309077  0.41358110  0.94480210    -0.77100
O618        O  0.21235759  0.32056671  0.54148792    -0.82300
C619        C  0.19494707  0.28771263  0.93736982     0.98800
C620        C  0.19632965  0.28883593  0.56010900     1.04700
O621        O  0.16665760  0.26816337  0.95793646    -0.77900
C622        C  0.14965185  0.42496927  0.93408770     1.03000
Fe623      Fe  0.39769435  0.09890230  0.75779951     1.65800
Fe624      Fe  0.36566485  0.20204162  0.74940491     1.73200
Fe625      Fe  0.29295150  0.12044133  0.75019249     1.54400
O626        O  0.30545562  0.07397776  0.70595025    -0.81600
O627        O  0.32159973  0.21659394  0.79476252    -0.79900
O628        O  0.37379940  0.06044399  0.71211746    -0.84100
O629        O  0.36841285  0.06536618  0.80380304    -0.79000
O630        O  0.27692979  0.16096500  0.70183490    -0.80800
O631        O  0.41060570  0.19987401  0.79650298    -0.83500
C632        C  0.33115470  0.05941012  0.81598877     0.97300
C633        C  0.33831304  0.05367680  0.69547184     1.04700
O634        O  0.35199959  0.14054643  0.75234208    -1.12500
O635        O  0.41136409  0.19390800  0.70355594    -0.74900
O636        O  0.43334566  0.12746103  0.71281044    -0.78400
O637        O  0.29975589  0.07703132  0.79876062    -0.79100
C638        C  0.43550192  0.16307508  0.69450667     0.96200
O639        O  0.42685519  0.13161796  0.80452270    -0.77100
O640        O  0.32267347  0.21407733  0.70257912    -0.82300
C641        C  0.28820705  0.19925420  0.80840160     0.98800
C642        C  0.28998478  0.19636749  0.68811978     1.04700
O643        O  0.27412689  0.16435580  0.79427604    -0.77900
C644        C  0.43002756  0.17011479  0.81499723     1.03000
Fe645      Fe  0.59323467  0.09893381  0.99693808     1.65800
Fe646      Fe  0.62191254  0.20356450  0.50067096     1.73200
Fe647      Fe  0.69662628  0.12517800  0.49797604     1.54400
O648        O  0.69020327  0.08327881  0.54738902    -0.81600
O649        O  0.66477546  0.22149867  0.95924125    -0.79900
O650        O  0.62658161  0.05738676  0.53528827    -0.84100
O651        O  0.61620225  0.07577515  0.94194436    -0.79000
O652        O  0.71541752  0.17098631  0.54113816    -0.80800
O653        O  0.57738395  0.19953006  0.95462117    -0.83500
C654        C  0.65332330  0.06462108  0.93271956     0.97300
C655        C  0.66181518  0.05582215  0.55357181     1.04700
O656        O  0.63744808  0.14315274  0.49964577    -1.12500
O657        O  0.57361952  0.19442493  0.54406486    -0.74900
O658        O  0.56862824  0.12441626  0.55397679    -0.78400
O659        O  0.68525906  0.07729044  0.95324545    -0.79100
C660        C  0.55999545  0.16233150  0.56417351     0.96200
O661        O  0.55140026  0.13488015  0.96320230    -0.77100
O662        O  0.66182169  0.21567822  0.55004496    -0.82300
C663        C  0.69447191  0.20331852  0.93939796     0.98800
C664        C  0.69827819  0.20232616  0.55965193     1.04700
O665        O  0.70761278  0.16632454  0.94856457    -0.77900
C666        C  0.55004017  0.17147040  0.94689503     1.03000
Fe667      Fe  0.89636377  0.39255593  0.75744087     1.65800
Fe668      Fe  0.79201502  0.37200468  0.75146447     1.73200
Fe669      Fe  0.86332191  0.29012391  0.75130079     1.54400
O670        O  0.91285669  0.29804585  0.70915559    -0.81600
O671        O  0.77441930  0.33207312  0.79981811    -0.79900
O672        O  0.92462047  0.36790315  0.70533112    -0.84100
O673        O  0.93294164  0.35584587  0.79653398    -0.79000
O674        O  0.82448496  0.27996502  0.70060746    -0.80800
O675        O  0.80202235  0.41942729  0.79606638    -0.83500
C676        C  0.93023222  0.31955524  0.81331013     0.97300
C677        C  0.93014630  0.33025789  0.69231805     1.04700
O678        O  0.85045875  0.35138733  0.75338158    -1.12500
O679        O  0.80413875  0.41394220  0.70293937    -0.74900
O680        O  0.86804382  0.43672730  0.71903039    -0.78400
O681        O  0.90319379  0.29231390  0.80238067    -0.79100
C682        C  0.83461388  0.43935033  0.69764059     0.96200
O683        O  0.87071688  0.41985739  0.80976449    -0.77100
O684        O  0.77356224  0.32771703  0.70677102    -0.82300
C685        C  0.78526020  0.29463699  0.81016684     0.98800
C686        C  0.78929004  0.29515097  0.68933157     1.04700
O687        O  0.81554278  0.27509095  0.79273153    -0.77900
C688        C  0.83337703  0.43130301  0.81782299     1.03000
C689        C  0.70961322  0.26688829  0.60337743    -0.12200
C690        C  0.72179297  0.22531516  0.59308845     0.04800
C691        C  0.75659094  0.20747983  0.61417339    -0.07500
C692        C  0.77804605  0.23113348  0.64458473    -0.08300
C693        C  0.76551848  0.27263105  0.65551395    -0.02800
C694        C  0.73059497  0.29055668  0.63416145     0.04000
N695        N  0.71615766  0.33288380  0.64209798     0.66500
H696        H  0.68331855  0.28147383  0.58727740     0.15400
H697        H  0.80426794  0.21621154  0.66049386     0.15100
N698        N  0.76976512  0.16483282  0.60630970     0.74200
O699        O  0.71038593  0.35759410  0.61147660    -0.39200
O700        O  0.69812445  0.34105680  0.67632942    -0.39200
O701        O  0.80449610  0.15791391  0.58855100    -0.39900
O702        O  0.74968883  0.13431869  0.62227488    -0.39900
C703        C  0.71752221  0.27108913  0.90591419    -0.12200
C704        C  0.71536886  0.22653553  0.90467860     0.04800
C705        C  0.73552490  0.20479877  0.87157145    -0.07500
C706        C  0.75866110  0.22762863  0.84181586    -0.08300
C707        C  0.76133618  0.27211085  0.84334026    -0.02800
C708        C  0.74036307  0.29391612  0.87583841     0.04000
N709        N  0.74396035  0.33894321  0.88021888     0.66500
H710        H  0.70276358  0.28828877  0.93132992     0.15400
H711        H  0.77359857  0.21042230  0.81650584     0.15100
N712        N  0.73137964  0.15977423  0.86665623     0.74200
O713        O  0.71202604  0.36223892  0.87556674    -0.39200
O714        O  0.77764802  0.35483315  0.89386113    -0.39200
O715        O  0.69546397  0.14352842  0.86185777    -0.39900
O716        O  0.76365139  0.13690363  0.86227148    -0.39900
C717        C  0.50428583  0.14151815  0.66586182    -0.12200
C718        C  0.46861813  0.16765252  0.66219070     0.04800
C719        C  0.46573876  0.19603459  0.62790647    -0.07500
C720        C  0.49788151  0.19653891  0.59765862    -0.08300
C721        C  0.53210134  0.16846738  0.60048070    -0.02800
C722        C  0.53587323  0.14173529  0.63567580     0.04000
N723        N  0.57163219  0.11448760  0.64107751     0.66500
H724        H  0.50781458  0.12052534  0.69256374     0.15400
H725        H  0.49449870  0.21660793  0.57026158     0.15100
N726        N  0.42925480  0.22196142  0.62150295     0.74200
O727        O  0.60827609  0.12973042  0.63995158    -0.39200
O728        O  0.56661188  0.07568462  0.64966437    -0.39200
O729        O  0.43338302  0.26075915  0.61246483    -0.39900
O730        O  0.39349829  0.20492501  0.61851793    -0.39900
C731        C  0.52337503  0.20338098  0.88027219    -0.12200
C732        C  0.51552588  0.18017326  0.91709193     0.04800
C733        C  0.47630140  0.15974533  0.92210622    -0.07500
C734        C  0.44791684  0.15887483  0.88881884    -0.08300
C735        C  0.45704781  0.17933709  0.85103563    -0.02800
C736        C  0.49433092  0.20302335  0.84714601     0.04000
N737        N  0.50495984  0.22304829  0.80839532     0.66500
H738        H  0.55335882  0.21903460  0.87592558     0.15400
H739        H  0.41885316  0.14124606  0.89209908     0.15100
N740        N  0.46530860  0.13896716  0.96054401     0.74200
O741        O  0.50224820  0.26285163  0.80479965    -0.39200
O742        O  0.52001541  0.20134550  0.77879369    -0.39200
O743        O  0.46659762  0.15914685  0.99463518    -0.39900
O744        O  0.45133748  0.10148174  0.96013864    -0.39900
C745        C  0.98671534  0.35342415  0.59158012    -0.12200
C746        C  0.02071033  0.32503058  0.59344596     0.04800
C747        C  0.02229040  0.29470670  0.62604923    -0.07500
C748        C  0.99062614  0.29452171  0.65685055    -0.08300
C749        C  0.95802999  0.32465496  0.65587880    -0.02800
C750        C  0.95546033  0.35330914  0.62207862     0.04000
N751        N  0.92092403  0.38226050  0.61817627     0.66500
H752        H  0.98423293  0.37594373  0.56597996     0.15400
H753        H  0.99308589  0.27277931  0.68307019     0.15100
N754        N  0.05728464  0.26642065  0.63021792     0.74200
O755        O  0.92753685  0.42167162  0.61541270    -0.39200
O756        O  0.88411625  0.36816799  0.61358593    -0.39200
O757        O  0.09387764  0.28115988  0.63464252    -0.39900
O758        O  0.05116540  0.22708870  0.63463313    -0.39900
C759        C  0.94672815  0.31923919  0.88866810    -0.12200
C760        C  0.95938649  0.31003222  0.84772473     0.04800
C761        C  0.00173376  0.29995607  0.83966148    -0.07500
C762        C  0.03104346  0.30056255  0.87248016    -0.08300
C763        C  0.01879261  0.31200984  0.91313427    -0.02800
C764        C  0.97607727  0.32084478  0.92126360     0.04000
N765        N  0.96230675  0.33275413  0.96220457     0.66500
H766        H  0.91429756  0.32747500  0.89490429     0.15400
H767        H  0.06380433  0.29410062  0.86578771     0.15100
N768        N  0.01557665  0.29095717  0.79799214     0.74200
O769        O  0.95864854  0.37153318  0.97140992    -0.39200
O770        O  0.94764546  0.30494108  0.98660692    -0.39200
O771        O  0.04336924  0.31375512  0.78102248    -0.39900
O772        O  0.00136616  0.25908280  0.77876086    -0.39900
C773        C  0.20446567  0.22814418  0.60987116    -0.12200
C774        C  0.22123979  0.26553177  0.59243652     0.04800
C775        C  0.26132544  0.27914716  0.60615568    -0.07500
C776        C  0.28284769  0.25598956  0.63692790    -0.08300
C777        C  0.26589982  0.21882273  0.65462452    -0.02800
C778        C  0.22599014  0.20497580  0.64061674     0.04000
N779        N  0.20601959  0.16822453  0.65790343     0.66500
H780        H  0.17389723  0.21679778  0.60004674     0.15400
H781        H  0.31342515  0.26729551  0.64676905     0.15100
N782        N  0.28101658  0.31624846  0.58931509     0.74200
O783        O  0.19041904  0.16993842  0.69418617    -0.39200
O784        O  0.19687363  0.13744147  0.63436831    -0.39200
O785        O  0.28938789  0.34699539  0.61317141    -0.39900
O786        O  0.29774690  0.31466624  0.55353095    -0.39900
C787        C  0.21658331  0.22097251  0.90135222    -0.12200
C788        C  0.21644444  0.26558539  0.90232386     0.04800
C789        C  0.23938936  0.28807875  0.87143481    -0.07500
C790        C  0.26352318  0.26571039  0.84216524    -0.08300
C791        C  0.26420813  0.22118015  0.84170234    -0.02800
C792        C  0.24029943  0.19863088  0.87166780     0.04000
N793        N  0.24145267  0.15317616  0.87383588     0.66500
H794        H  0.19959599  0.20316437  0.92493818     0.15400
H795        H  0.28063462  0.28335557  0.81853396     0.15100
N796        N  0.23720497  0.33345170  0.86813631     0.74200
O797        O  0.27604636  0.13420114  0.87885499    -0.39200
O798        O  0.20766525  0.13232924  0.87571550    -0.39200
O799        O  0.27045355  0.35494189  0.86451467    -0.39900
O800        O  0.20209839  0.35146600  0.86317842    -0.39900
C801        C  0.69041985  0.02862605  0.62120115    -0.12200
C802        C  0.66879373  0.02088313  0.58365770     0.04800
C803        C  0.65015984  0.98071626  0.57718331    -0.07500
C804        C  0.65059970  0.95053369  0.60916014    -0.08300
C805        C  0.67020516  0.95909704  0.64740414    -0.02800
C806        C  0.69140561  0.99792806  0.65307086     0.04000
N807        N  0.71060513  0.00805043  0.69227431     0.66500
H808        H  0.70466260  0.05932391  0.62670511     0.15400
H809        H  0.63445127  0.92059924  0.60453938     0.15100
N810        N  0.63008774  0.97029962  0.53848494     0.74200
O811        O  0.74601534  0.99259035  0.70145009    -0.39200
O812        O  0.69450020  0.03600019  0.71555363    -0.39200
O813        O  0.65173634  0.95582825  0.50867098    -0.39900
O814        O  0.59056184  0.96789046  0.53682421    -0.39900
C815        C  0.69017448  0.97396901  0.86279295    -0.12200
C816        C  0.65886374  0.97453820  0.83169667     0.04800
C817        C  0.62900788  0.00796274  0.83188125    -0.07500
C818        C  0.62879750  0.03725227  0.86458411    -0.08300
C819        C  0.65845652  0.03526052  0.89695224    -0.02800
C820        C  0.69022168  0.00394090  0.89533655     0.04000
N821        N  0.72103559  0.00034494  0.92775898     0.66500
H822        H  0.71354645  0.94893705  0.86309468     0.15400
H823        H  0.60507647  0.06198219  0.86457415     0.15100
N824        N  0.59877710  0.01302379  0.79898952     0.74200
O825        O  0.71037296  0.98786083  0.96377216    -0.39200
O826        O  0.75949081  0.00431739  0.91906594    -0.39200
O827        O  0.56008453  0.01430983  0.80751316    -0.39900
O828        O  0.61088730  0.02140058  0.76227058    -0.39900
C829        C  0.80520562  0.50434984  0.60086788    -0.12200
C830        C  0.83338993  0.53836643  0.60408797     0.04800
C831        C  0.85933037  0.54142465  0.63972908    -0.07500
C832        C  0.85878128  0.50908321  0.66980654    -0.08300
C833        C  0.83211402  0.47368556  0.66569512    -0.02800
C834        C  0.80454276  0.47196222  0.63103736     0.04000
N835        N  0.77753451  0.43642371  0.62445831     0.66500
H836        H  0.78534922  0.50147313  0.57344536     0.15400
H837        H  0.87924416  0.51194629  0.69677461     0.15100
N838        N  0.88567176  0.57767280  0.64621044     0.74200
O839        O  0.73839321  0.44214933  0.62182199    -0.39200
O840        O  0.79305428  0.40109191  0.61405701    -0.39200
O841        O  0.86940797  0.61387310  0.65126971    -0.39900
O842        O  0.92483170  0.57307732  0.65041642    -0.39900
C843        C  0.84873703  0.48716391  0.92121193    -0.12200
C844        C  0.82489666  0.52432579  0.91563384     0.04800
C845        C  0.79956758  0.52820102  0.87947519    -0.07500
C846        C  0.80046066  0.49614225  0.84885382    -0.08300
C847        C  0.82688239  0.46060889  0.85335960    -0.02800
C848        C  0.85012361  0.45572697  0.89057817     0.04000
N849        N  0.87554501  0.41899000  0.89772752     0.66500
H850        H  0.86748616  0.48280967  0.94923325     0.15400
H851        H  0.78250948  0.50036044  0.82030987     0.15100
N852        N  0.77529738  0.56564770  0.87189805     0.74200
O853        O  0.91446539  0.42067153  0.89045752    -0.39200
O854        O  0.86114519  0.38889495  0.91950599    -0.39200
O855        O  0.79296737  0.59882458  0.85847738    -0.39900
O856        O  0.73575951  0.56420021  0.87410105    -0.39900
C857        C  0.78631097  0.75516776  0.88444232    -0.12200
C858        C  0.76468602  0.72816223  0.91206874     0.04800
C859        C  0.72076929  0.72346398  0.90718142    -0.07500
C860        C  0.69987699  0.74479847  0.87469027    -0.08300
C861        C  0.72159799  0.77173123  0.84703539    -0.02800
C862        C  0.76545216  0.77657528  0.85212877     0.04000
N863        N  0.78979666  0.80130639  0.82346917     0.66500
H864        H  0.82004295  0.75890805  0.88709265     0.15400
H865        H  0.66622815  0.74079095  0.87161459     0.15100
N866        N  0.69658911  0.69846106  0.93575825     0.74200
O867        O  0.80677007  0.83533075  0.83556928    -0.39200
O868        O  0.79875045  0.78646856  0.78788911    -0.39200
O869        O  0.68883407  0.71244667  0.97195142    -0.39900
O870        O  0.67880478  0.66501397  0.92325579    -0.39900
C871        C  0.73054668  0.71114833  0.60651911    -0.12200
C872        C  0.77108846  0.72472852  0.59545579     0.04800
C873        C  0.78840993  0.76014115  0.61640067    -0.07500
C874        C  0.76493394  0.78123177  0.64710996    -0.08300
C875        C  0.72430276  0.76771674  0.65811934    -0.02800
C876        C  0.70692094  0.73238799  0.63695605     0.04000
N877        N  0.66471548  0.71865202  0.64445076     0.66500
H878        H  0.71625944  0.68462594  0.59032204     0.15400
H879        H  0.77922729  0.80781118  0.66320341     0.15100
N880        N  0.83040238  0.77407305  0.60830574     0.74200
O881        O  0.63437957  0.74247545  0.63452061    -0.39200
O882        O  0.65763202  0.68059261  0.65463771    -0.39200
O883        O  0.83718453  0.81207456  0.59772185    -0.39900
O884        O  0.86094093  0.75043468  0.61792087    -0.39900
C885        C  0.30431134  0.98427497  0.60358598    -0.12200
C886        C  0.33594912  0.95312144  0.60414302     0.04800
C887        C  0.36658776  0.95411451  0.63611016    -0.07500
C888        C  0.36646779  0.98729805  0.66501045    -0.08300
C889        C  0.33598620  0.01960108  0.66357085    -0.02800
C890        C  0.30427162  0.01774190  0.63261116     0.04000
N891        N  0.27363231  0.05082774  0.62831453     0.66500
H892        H  0.28106142  0.98424983  0.57879498     0.15400
H893        H  0.39025008  0.98732712  0.68930356     0.15100
N894        N  0.39773159  0.92137775  0.64003333     0.74200
O895        O  0.28534850  0.08857107  0.62192541    -0.39200
O896        O  0.23525411  0.04154550  0.62461601    -0.39200
O897        O  0.43599421  0.93099920  0.64415787    -0.39900
O898        O  0.38666518  0.88303215  0.64326764    -0.39900
C899        C  0.35489470  0.03457702  0.88491897    -0.12200
C900        C  0.32559086  0.03129234  0.85246054     0.04800
C901        C  0.29439860  0.99965870  0.85445463    -0.07500
C902        C  0.29463943  0.97034310  0.88770447    -0.08300
C903        C  0.32579606  0.97200886  0.91899605    -0.02800
C904        C  0.35510036  0.00591235  0.91813864     0.04000
N905        N  0.38596741  0.01147209  0.95026043     0.66500
H906        H  0.37838124  0.05950154  0.88424227     0.15400
H907        H  0.27184382  0.94484248  0.88765581     0.15100
N908        N  0.26465257  0.99467976  0.82130121     0.74200
O909        O  0.42451110  0.00832736  0.94153161    -0.39200
O910        O  0.37499229  0.02440839  0.98599999    -0.39200
O911        O  0.27626983  0.97972003  0.78654509    -0.39900
O912        O  0.22614342  0.00126930  0.82800635    -0.39900
C913        C  0.46280420  0.79085455  0.62393744    -0.12200
C914        C  0.47295833  0.80738989  0.58434257     0.04800
C915        C  0.51425352  0.82205692  0.57674688    -0.07500
C916        C  0.54293253  0.82423603  0.60991121    -0.08300
C917        C  0.53166875  0.81084512  0.65013617    -0.02800
C918        C  0.49171364  0.79294568  0.65709190     0.04000
N919        N  0.47885905  0.78024262  0.69823335     0.66500
H920        H  0.43118287  0.77979036  0.63013115     0.15400
H921        H  0.57397205  0.83728461  0.60452570     0.15100
N922        N  0.52722855  0.83517363  0.53566453     0.74200
O923        O  0.47878888  0.80681849  0.72777968    -0.39200
O924        O  0.46306955  0.74397023  0.70400692    -0.39200
O925        O  0.55029172  0.86742488  0.53105178    -0.39900
O926        O  0.51900122  0.81225927  0.50432811    -0.39900
C927        C  0.48756303  0.85797327  0.83615667    -0.12200
C928        C  0.52106774  0.82889140  0.83715592     0.04800
C929        C  0.52173857  0.79743603  0.86876461    -0.07500
C930        C  0.48998288  0.79660670  0.89926725    -0.08300
C931        C  0.45769348  0.82701486  0.89908698    -0.02800
C932        C  0.45591826  0.85711334  0.86637924     0.04000
N933        N  0.42189775  0.88681619  0.86328474     0.66500
H934        H  0.48561622  0.88151008  0.81143533     0.15400
H935        H  0.49200142  0.77373345  0.92457775     0.15100
N936        N  0.55600510  0.76831324  0.87228689     0.74200
O937        O  0.42926997  0.92608939  0.86050340    -0.39200
O938        O  0.38460889  0.87360831  0.86012416    -0.39200
O939        O  0.58953531  0.77979916  0.89002543    -0.39900
O940        O  0.55095012  0.72985156  0.86254592    -0.39900
C941        C  0.13134167  0.50287081  0.58308790    -0.12200
C942        C  0.15893171  0.46813149  0.58578462     0.04800
C943        C  0.18857096  0.46713793  0.61890593    -0.07500
C944        C  0.18842507  0.49949206  0.64931609    -0.08300
C945        C  0.15875398  0.53248212  0.64771911    -0.02800
C946        C  0.13100220  0.53461124  0.61341061     0.04000
N947        N  0.10300800  0.56969357  0.60815258     0.66500
H948        H  0.10933947  0.50547919  0.55730542     0.15400
H949        H  0.20986143  0.49737767  0.67560290     0.15100
N950        N  0.21739214  0.43259070  0.62355666     0.74200
O951        O  0.11399350  0.60017988  0.58498067    -0.39200
O952        O  0.06488542  0.56581646  0.61827573    -0.39200
O953        O  0.25640178  0.43965226  0.62340871    -0.39900
O954        O  0.20402682  0.39643197  0.63419629    -0.39900
C955        C  0.12179205  0.48713636  0.83617693    -0.12200
C956        C  0.15133309  0.52023107  0.83711612     0.04800
C957        C  0.18255679  0.51969249  0.86864946    -0.07500
C958        C  0.18317608  0.48702281  0.89864184    -0.08300
C959        C  0.15295215  0.45463553  0.89812242    -0.02800
C960        C  0.12249959  0.45443787  0.86584918     0.04000
N961        N  0.09217968  0.42101536  0.86255084     0.66500
H962        H  0.09805483  0.48624470  0.81186429     0.15400
H963        H  0.20619214  0.48817656  0.92362198     0.15100
N964        N  0.21203981  0.55356278  0.87251510     0.74200
O965        O  0.05342765  0.42952127  0.86302073    -0.39200
O966        O  0.10409086  0.38342703  0.85572270    -0.39200
O967        O  0.20532931  0.58287028  0.89856214    -0.39900
O968        O  0.24744505  0.55069604  0.85500696    -0.39900
C969        C  0.04270214  0.67582568  0.61059148    -0.12200
C970        C  0.02975850  0.68576283  0.65124093     0.04800
C971        C  0.98765227  0.69715572  0.65881938    -0.07500
C972        C  0.95854632  0.69559641  0.62589891    -0.08300
C973        C  0.97091709  0.68276139  0.58572638    -0.02800
C974        C  0.01361053  0.67377541  0.57787412     0.04000
N975        N  0.02749498  0.66082342  0.53727337     0.66500
H976        H  0.07512264  0.66739011  0.60479429     0.15400
H977        H  0.92579162  0.70209725  0.63226755     0.15100
N978        N  0.97375269  0.70793804  0.70016708     0.74200
O979        O  0.03002213  0.62180996  0.52866897    -0.39200
O980        O  0.04356695  0.68774372  0.51277990    -0.39200
O981        O  0.99356467  0.73509598  0.72143408    -0.39900
O982        O  0.94044779  0.69199740  0.71472226    -0.39900
C983        C  0.98073107  0.64526565  0.83353674    -0.12200
C984        C  0.01647789  0.67114767  0.83679554     0.04800
C985        C  0.01917665  0.70045634  0.87009693    -0.07500
C986        C  0.98772077  0.70110354  0.90094969    -0.08300
C987        C  0.95361761  0.67291242  0.89893307    -0.02800
C988        C  0.94930823  0.64622307  0.86387269     0.04000
N989        N  0.91300834  0.61994600  0.85873304     0.66500
H990        H  0.97716369  0.62386260  0.80722956     0.15400
H991        H  0.99144291  0.72159450  0.92791859     0.15100
N992        N  0.05508374  0.72719514  0.87486194     0.74200
O993        O  0.91696764  0.58023062  0.85526047    -0.39200
O994        O  0.87745795  0.63684642  0.85334367    -0.39200
O995        O  0.08820179  0.71262479  0.89120674    -0.39900
O996        O  0.05221837  0.76637812  0.86707741    -0.39900
C997        C  0.25116145  0.69981683  0.63431259    -0.12200
C998        C  0.22535634  0.72328074  0.66148490     0.04800
C999        C  0.22251074  0.76773436  0.65592997    -0.07500
C1000       C  0.24447580  0.78739822  0.62336920    -0.08300
C1001       C  0.26992218  0.76394217  0.59584167    -0.02800
C1002       C  0.27300044  0.71949208  0.60154671     0.04000
N1003       N  0.29661171  0.69348627  0.57340807     0.66500
H1004       H  0.25342155  0.66563697  0.63757682     0.15400
H1005       H  0.24196702  0.82156349  0.62013740     0.15100
N1006       N  0.19843104  0.79371248  0.68371065     0.74200
O1007       O  0.32869721  0.67391315  0.58637086    -0.39200
O1008       O  0.28231872  0.68563491  0.53737989    -0.39200
O1009       O  0.21215277  0.80165319  0.71993480    -0.39900
O1010       O  0.16617337  0.81277001  0.67041901    -0.39900
C1011       C  0.20800991  0.76055992  0.85820546    -0.12200
C1012       C  0.22071051  0.71931301  0.84659445     0.04800
C1013       C  0.25734124  0.70217593  0.86546233    -0.07500
C1014       C  0.27950482  0.72610464  0.89507128    -0.08300
C1015       C  0.26716255  0.76747931  0.90600359    -0.02800
C1016       C  0.23104887  0.78491320  0.88682262     0.04000
N1017       N  0.21821140  0.82781722  0.89452215     0.66500
H1018       H  0.18067826  0.77496889  0.84376872     0.15400
H1019       H  0.30695260  0.71195506  0.90955334     0.15100
N1020       N  0.27292141  0.66074887  0.85535529     0.74200
O1021       O  0.24246265  0.85807475  0.88519582    -0.39200
O1022       O  0.18070717  0.83573363  0.90468746    -0.39200
O1023       O  0.28991892  0.65465339  0.82017814    -0.39900
O1024       O  0.28028318  0.63480573  0.88461877    -0.39900
loop_ 
_geom_bond_atom_site_label_1 
_geom_bond_atom_site_label_2 
_geom_bond_distance 
_geom_bond_site_symmetry_2 
_ccdc_geom_bond_type 
Fe1          O17   2.059       .  S
Fe1           O7   2.049       .  S
Fe1          O14   2.046       .  S
Fe1           O6   2.051       .  S
Fe1          O12   1.965       .  S
Fe2           O5   2.070       .  S
Fe2           O9   2.070       .  S
Fe2          O13   2.088       .  S
Fe2          O18   2.063       .  S
Fe2          O12   1.985       .  S
Fe3          O21   2.056       .  S
Fe3           O8   2.067       .  S
Fe3          O15   2.078       .  S
Fe3           O4   2.066       .  S
Fe3          O12   1.987       .  S
O4           C11   1.266       .  A
O5           C19   1.268       .  A
O6           C11   1.265       .  A
O7           C10   1.268       .  A
O8           C20   1.272       .  A
O9           C22   1.270       .  A
C10          O15   1.271       .  A
C10         C472   1.488       .  S
C11         C458   1.466       .  S
O13          C16   1.269       .  A
O14          C16   1.264       .  A
C16         C433   1.480       .  S
O17          C22   1.270       .  A
O18          C20   1.272       .  A
C19          O21   1.267       .  A
C19         C500   1.495       .  S
C20         C486   1.484       .  S
C22         C444   1.484       .  S
Fe23         O39   2.047       .  S
Fe23         O29   2.052       .  S
Fe23        O548   2.050   1_554  S
Fe23        O540   2.043   1_554  S
Fe23        O546   1.947       .  S
Fe24         O35   2.070       .  S
Fe24         O40   2.081       .  S
Fe24        O539   2.051       .  S
Fe24        O543   2.094       .  S
Fe24         O34   1.961       .  S
Fe25         O30   2.053       .  S
Fe25         O26   2.094       .  S
Fe25        O555   2.075       .  S
Fe25        O549   2.066       .  S
Fe25         O34   1.960       .  S
O26          C33   1.275       .  A
O27        Fe536   2.054       .  S
O27          C41   1.270       .  A
O28        Fe535   2.035       .  S
O28          C33   1.268       .  A
O29          C32   1.265       .  A
O30          C42   1.270       .  A
O31        Fe536   2.091       .  S
O31          C44   1.274       .  A
C32          O37   1.266       .  A
C32         C402   1.477       .  S
C33         C419   1.472       .  S
O34        Fe535   1.946       .  S
O35          C38   1.268       .  A
O36        Fe535   2.062       .  S
O36          C38   1.267       .  A
O37        Fe537   2.070   1_554  S
C38         C391   1.486       .  S
O39          C44   1.270       .  A
O40          C42   1.273       .  A
C41          O43   1.273       .  A
C41         C489   1.486       .  S
C42         C503   1.492       .  S
O43        Fe537   2.076   1_554  S
C44         C374   1.481       .  S
Fe45         O61   2.061       .  S
Fe45         O51   2.040       .  S
Fe45        O570   2.048       .  S
Fe45        O562   2.057       .  S
Fe45        O568   1.948       .  S
Fe46         O49   2.077       .  S
Fe46         O53   2.074       .  S
Fe46        O569   2.091       .  S
Fe46        O574   2.057       .  S
Fe46        O568   1.958       .  S
Fe47         O52   2.071       .  S
Fe47         O48   2.067       .  S
Fe47        O577   2.057   1_554  S
Fe47        O571   2.094   1_554  S
Fe47         O56   1.963       .  S
O48          C55   1.265       .  A
O49          C63   1.271       .  A
O50        Fe557   2.055       .  S
O50          C55   1.264       .  A
O51          C54   1.270       .  A
O52          C64   1.272       .  A
O53          C66   1.269       .  A
C54          O59   1.278       .  A
C54         C475   1.479       .  S
C55         C461   1.478       .  S
O56        Fe557   1.948       .  S
O56        Fe558   1.965       .  S
O57        Fe558   2.093       .  S
O57          C60   1.276       .  A
O58        Fe557   2.049       .  S
O58          C60   1.270       .  A
O59        Fe559   2.100       .  S
C60         C318   1.480       .  S
O61          C66   1.267       .  A
O62        Fe558   2.056       .  S
O62          C64   1.270       .  A
C63          O65   1.269       .  A
C63         C346   1.492       .  S
C64         C360   1.478       .  S
O65        Fe559   2.056       .  S
C66         C332   1.491       .  S
Fe67         O83   2.044       .  S
Fe67         O73   2.043       .  S
Fe67         O80   2.049       .  S
Fe67         O72   2.050       .  S
Fe67         O78   1.965       .  S
Fe68         O71   2.063       .  S
Fe68         O75   2.073       .  S
Fe68         O79   2.076       .  S
Fe68         O84   2.066       .  S
Fe68         O78   1.986       .  S
Fe69         O87   2.059       .  S
Fe69         O74   2.060       .  S
Fe69         O81   2.073       .  S
Fe69         O70   2.067       .  S
Fe69         O78   1.987       .  S
O70          C77   1.270       .  A
O71          C85   1.272       .  A
O72          C77   1.268       .  A
O73          C76   1.262       .  A
O74          C86   1.267       .  A
O75          C88   1.267       .  A
C76          O81   1.266       .  A
C76         C405   1.466       .  S
C77         C416   1.479       .  S
O79          C82   1.272       .  A
O80          C82   1.267       .  A
C82         C304   1.488       .  S
O83          C88   1.263       .  A
O84          C86   1.268       .  A
C85          O87   1.270       .  A
C85         C363   1.480       .  S
C86         C349   1.488       .  S
C88         C293   1.469       .  S
Fe89        O105   2.040       .  S
Fe89         O95   2.059       .  S
Fe89        O614   2.064       .  S
Fe89        O606   2.034       .  S
Fe89        O612   1.955       .  S
Fe90        O101   2.069   1_556  S
Fe90        O106   2.092   1_556  S
Fe90        O605   2.049       .  S
Fe90        O609   2.110       .  S
Fe90        O100   1.959       .  S
Fe91         O96   2.064       .  S
Fe91         O92   2.104       .  S
Fe91        O621   2.082   1_554  S
Fe91        O615   2.069   1_554  S
Fe91        O100   1.960   1_554  S
O92          C99   1.277       .  A
O93        Fe602   2.055       .  S
O93         C107   1.269       .  A
O94        Fe601   2.025   1_554  S
O94          C99   1.266       .  A
O95          C98   1.264       .  A
O96         C108   1.272       .  A
O97        Fe602   2.092       .  S
O97         C110   1.273       .  A
C98         O103   1.264       .  A
C98         C251   1.464       .  S
C99         C234   1.474       .  S
O100       Fe601   1.945       .  S
O101        C104   1.267       .  A
O102       Fe601   2.062   1_554  S
O102        C104   1.268       .  A
O103       Fe603   2.060       .  S
C104        C430   1.487       .  S
O105        C110   1.265       .  A
O106        C108   1.276       .  A
C107        O109   1.275       .  A
C107        C276   1.493       .  S
C108        C262   1.493       .  S
O109       Fe603   2.083       .  S
C110        C447   1.479       .  S
Fe111       O127   2.056       .  S
Fe111       O117   2.041       .  S
Fe111       O124   2.034       .  S
Fe111       O116   2.057       .  S
Fe111       O122   1.953       .  S
Fe112       O115   2.083       .  S
Fe112       O119   2.076       .  S
Fe112       O123   2.102       .  S
Fe112       O128   2.071       .  S
Fe112       O122   1.966       .  S
Fe113       O131   2.059       .  S
Fe113       O118   2.082       .  S
Fe113       O125   2.098       .  S
Fe113       O114   2.071       .  S
Fe113       O122   1.968       .  S
O114        C121   1.269       .  A
O115        C129   1.276       .  A
O116        C121   1.268       .  A
O117        C120   1.266       .  A
O118        C130   1.272       .  A
O119        C132   1.267       .  A
C120        O125   1.274       .  A
C120        C388   1.478       .  S
C121        C377   1.490       .  S
O123        C126   1.278       .  A
O124        C126   1.268       .  A
C126        C206   1.485       .  S
O127        C132   1.264       .  A
O128        C130   1.270       .  A
C129        O131   1.270       .  A
C129        C279   1.493       .  S
C130        C265   1.493       .  S
C132        C223   1.474       .  S
Fe133       O149   2.066       .  S
Fe133       O139   2.038       .  S
Fe133       O658   2.041       .  S
Fe133       O650   2.056       .  S
Fe133       O656   1.954       .  S
Fe134       O145   2.096       .  S
Fe134       O150   2.057       .  S
Fe134       O649   2.082   1_554  S
Fe134       O653   2.069   1_554  S
Fe134       O144   1.969   1_554  S
Fe135       O140   2.081   1_556  S
Fe135       O136   2.072   1_556  S
Fe135       O665   2.059       .  S
Fe135       O659   2.095       .  S
Fe135       O144   1.966       .  S
O136        C143   1.269       .  A
O137       Fe646   2.069       .  S
O137        C151   1.270       .  A
O138       Fe645   2.057   1_554  S
O138        C143   1.265       .  A
O139        C142   1.269       .  A
O140        C152   1.272       .  A
O141       Fe646   2.066       .  S
O141        C154   1.266       .  A
C142        O147   1.276       .  A
C142        C307   1.483       .  S
C143        C290   1.483       .  S
O144       Fe645   1.951       .  S
O145        C148   1.277       .  A
O146       Fe645   2.037   1_554  S
O146        C148   1.268       .  A
O147       Fe647   2.096       .  S
C148        C209   1.481       .  S
O149        C154   1.265       .  A
O150        C152   1.268       .  A
C151        O153   1.268       .  A
C151        C192   1.484       .  S
C152        C178   1.494       .  S
O153       Fe647   2.056       .  S
C154        C220   1.470       .  S
Fe155       O171   2.046       .  S
Fe155       O161   2.056       .  S
Fe155       O168   2.059       .  S
Fe155       O160   2.036       .  S
Fe155       O166   1.954       .  S
Fe156       O159   2.062       .  S
Fe156       O163   2.097       .  S
Fe156       O167   2.072       .  S
Fe156       O172   2.083       .  S
Fe156       O166   1.965       .  S
Fe157       O175   2.066       .  S
Fe157       O162   2.058       .  S
Fe157       O169   2.063       .  S
Fe157       O158   2.088       .  S
Fe157       O166   1.967       .  S
O158        C165   1.274       .  A
O159        C173   1.271       .  A
O160        C165   1.268       .  A
O161        C164   1.264       .  A
O162        C174   1.269       .  A
O163        C176   1.275       .  A
C164        O169   1.264       .  A
C164        C248   1.467       .  S
C165        C237   1.474       .  S
O167        C170   1.269       .  A
O168        C170   1.267       .  A
C170        C321   1.489       .  S
O171        C176   1.268       .  A
O172        C174   1.272       .  A
C173        O175   1.272       .  A
C173        C195   1.484       .  S
C174        C181   1.497       .  S
C176        C335   1.483       .  S
C177        C178   1.407       .  A
C177        C182   1.403       .  A
C177        H184   1.084       .  S
C178        C179   1.414       .  A
C179        C180   1.403       .  A
C179        N186   1.431       .  S
C180        C181   1.410       .  A
C180        H185   1.083       .  S
C181        C182   1.417       .  A
C182        N183   1.431       .  S
N183        O187   1.262       .  A
N183        O188   1.262       .  A
N186        O190   1.262       .  A
N186        O189   1.262       .  A
C191        C192   1.406       .  A
C191        C196   1.401       .  A
C191        H198   1.084       .  S
C192        C193   1.413       .  A
C193        C194   1.399       .  A
C193        N200   1.432       .  S
C194        C195   1.406       .  A
C194        H199   1.084       .  S
C195        C196   1.414       .  A
C196        N197   1.432       .  S
N197        O201   1.262       .  A
N197        O202   1.262       .  A
N200        O204   1.262       .  A
N200        O203   1.262       .  A
C205        C206   1.406       .  A
C205        C210   1.394       .  A
C205        H212   1.084       .  S
C206        C207   1.412       .  A
C207        C208   1.407       .  A
C207        N214   1.430       .  S
C208        C209   1.406       .  A
C208        H213   1.084       .  S
C209        C210   1.413       .  A
C210        N211   1.435       .  S
N211        O215   1.262       .  A
N211        O216   1.263       .  A
N214        O218   1.262       .  A
N214        O217   1.262       .  A
C219        C220   1.400       .  A
C219        C224   1.399       .  A
C219        H226   1.084       .  S
C220        C221   1.410       .  A
C221        C222   1.405       .  A
C221        N228   1.430       .  S
C222        C223   1.403       .  A
C222        H227   1.084       .  S
C223        C224   1.411       .  A
C224        N225   1.430       .  S
N225        O229   1.262       .  A
N225        O230   1.262       .  A
N228        O232   1.262       .  A
N228        O231   1.262       .  A
C233        C234   1.403   1_655  A
C233        C238   1.391       .  A
C233        H240   1.085       .  S
C234        C235   1.409       .  A
C235        C236   1.406   1_455  A
C235        N242   1.428       .  S
C236        C237   1.407       .  A
C236        H241   1.084       .  S
C237        C238   1.411       .  A
C238        N239   1.434       .  S
N239        O243   1.262       .  A
N239        O244   1.262       .  A
N242        O246   1.262       .  A
N242        O245   1.262       .  A
C247        C248   1.402       .  A
C247        C252   1.401       .  A
C247        H254   1.084       .  S
C248        C249   1.409   1_655  A
C249        C250   1.397       .  A
C249        N256   1.431       .  S
C250        C251   1.398       .  A
C250        H255   1.082       .  S
C251        C252   1.408   1_455  A
C252        N253   1.429       .  S
N253        O257   1.262       .  A
N253        O258   1.262       .  A
N256        O260   1.262       .  A
N256        O259   1.262       .  A
C261        C262   1.406       .  A
C261        C266   1.405       .  A
C261        H268   1.083       .  S
C262        C263   1.416       .  A
C263        C264   1.407       .  A
C263        N270   1.434       .  S
C264        C265   1.406       .  A
C264        H269   1.082       .  S
C265        C266   1.416       .  A
C266        N267   1.435       .  S
N267        O271   1.263       .  A
N267        O272   1.262       .  A
N270        O274   1.263       .  A
N270        O273   1.262       .  A
C275        C276   1.406       .  A
C275        C280   1.401       .  A
C275        H282   1.083       .  S
C276        C277   1.418       .  A
C277        C278   1.402       .  A
C277        N284   1.433       .  S
C278        C279   1.406       .  A
C278        H283   1.083       .  S
C279        C280   1.417       .  A
C280        N281   1.431       .  S
N281        O285   1.262       .  A
N281        O286   1.262       .  A
N284        O288   1.263       .  A
N284        O287   1.262       .  A
C289        C290   1.406       .  A
C289        C294   1.404   1_545  A
C289        H296   1.083       .  S
C290        C291   1.417   1_545  A
C291        C292   1.395       .  A
C291        N298   1.430       .  S
C292        C293   1.398       .  A
C292        H297   1.085       .  S
C293        C294   1.408       .  A
C294        N295   1.429   1_565  S
N295        O299   1.262   1_545  A
N295        O300   1.262       .  A
N298        O302   1.262       .  A
N298        O301   1.262       .  A
C303        C304   1.408       .  A
C303        C308   1.406   1_565  A
C303        H310   1.083       .  S
C304        C305   1.417   1_565  A
C305        C306   1.394       .  A
C305        N312   1.433       .  S
C306        C307   1.402       .  A
C306        H311   1.084       .  S
C307        C308   1.413       .  A
C308        N309   1.430       .  S
N309        O313   1.262   1_545  A
N309        O314   1.262       .  A
N312        O316   1.262       .  A
N312        O315   1.262       .  A
C317        C318   1.404       .  A
C317        C322   1.404       .  A
C317        H324   1.084       .  S
C318        C319   1.410       .  A
C319        C320   1.397       .  A
C319        N326   1.431       .  S
C320        C321   1.408       .  A
C320        H325   1.084       .  S
C321        C322   1.414       .  A
C322        N323   1.429       .  S
N323        O327   1.262       .  A
N323        O328   1.262       .  A
N326        O330   1.262       .  A
N326        O329   1.262       .  A
C331        C332   1.407       .  A
C331        C336   1.395       .  A
C331        H338   1.084       .  S
C332        C333   1.415       .  A
C333        C334   1.407       .  A
C333        N340   1.429       .  S
C334        C335   1.406       .  A
C334        H339   1.084       .  S
C335        C336   1.411       .  A
C336        N337   1.432       .  S
N337        O341   1.262       .  A
N337        O342   1.262       .  A
N340        O344   1.262       .  A
N340        O343   1.262       .  A
C345        C346   1.407       .  A
C345        C350   1.400       .  A
C345        H352   1.084       .  S
C346        C347   1.416       .  A
C347        C348   1.402       .  A
C347        N354   1.429       .  S
C348        C349   1.406       .  A
C348        H353   1.084       .  S
C349        C350   1.413       .  A
C350        N351   1.430       .  S
N351        O355   1.262       .  A
N351        O356   1.262       .  A
N354        O358   1.262       .  A
N354        O357   1.262       .  A
C359        C360   1.403       .  A
C359        C364   1.400       .  A
C359        H366   1.084       .  S
C360        C361   1.411       .  A
C361        C362   1.399       .  A
C361        N368   1.431       .  S
C362        C363   1.404       .  A
C362        H367   1.084       .  S
C363        C364   1.415       .  A
C364        N365   1.434       .  S
N365        O369   1.262       .  A
N365        O370   1.262       .  A
N368        O372   1.261       .  A
N368        O371   1.262       .  A
C373        C374   1.406       .  A
C373        C378   1.406   1_565  A
C373        H380   1.084       .  S
C374        C375   1.410       .  A
C375        C376   1.396       .  A
C375        N382   1.434       .  S
C376        C377   1.409   1_565  A
C376        H381   1.084       .  S
C377        C378   1.416       .  A
C378        N379   1.432       .  S
N379        O383   1.262       .  A
N379        O384   1.262       .  A
N382        O386   1.262       .  A
N382        O385   1.262       .  A
C387        C388   1.401       .  A
C387        C392   1.398       .  A
C387        H394   1.084       .  S
C388        C389   1.412   1_545  A
C389        C390   1.407       .  A
C389        N396   1.432       .  S
C390        C391   1.407       .  A
C390        H395   1.084       .  S
C391        C392   1.416   1_565  A
C392        N393   1.435       .  S
N393        O397   1.262       .  A
N393        O398   1.263       .  A
N396        O400   1.262       .  A
N396        O399   1.262       .  A
C401        C402   1.405       .  A
C401        C406   1.406       .  A
C401        H408   1.084       .  S
C402        C403   1.415       .  A
C403        C404   1.397       .  A
C403        N410   1.437       .  S
C404        C405   1.398       .  A
C404        H409   1.084       .  S
C405        C406   1.410       .  A
C406        N407   1.433       .  S
N407        O411   1.262       .  A
N407        O412   1.262       .  A
N410        O414   1.263       .  A
N410        O413   1.263       .  A
C415        C416   1.405       .  A
C415        C420   1.393       .  A
C415        H422   1.084       .  S
C416        C417   1.414       .  A
C417        C418   1.404       .  A
C417        N424   1.431       .  S
C418        C419   1.404       .  A
C418        H423   1.084       .  S
C419        C420   1.409       .  A
C420        N421   1.432       .  S
N421        O425   1.262       .  A
N421        O426   1.262       .  A
N424        O428   1.262       .  A
N424        O427   1.262       .  A
C429        C430   1.403       .  A
C429        C434   1.391       .  A
C429        H436   1.084       .  S
C430        C431   1.418       .  A
C431        C432   1.412       .  A
C431        N438   1.431       .  S
C432        C433   1.405       .  A
C432        H437   1.084       .  S
C433        C434   1.406       .  A
C434        N435   1.426       .  S
N435        O439   1.262       .  A
N435        O440   1.262       .  A
N438        O442   1.262       .  A
N438        O441   1.262       .  A
C443        C444   1.404       .  A
C443        C448   1.395       .  A
C443        H450   1.084       .  S
C444        C445   1.417       .  A
C445        C446   1.406       .  A
C445        N452   1.433       .  S
C446        C447   1.403       .  A
C446        H451   1.084       .  S
C447        C448   1.410       .  A
C448        N449   1.431       .  S
N449        O453   1.262       .  A
N449        O454   1.262       .  A
N452        O456   1.262       .  A
N452        O455   1.263       .  A
C457        C458   1.397       .  A
C457        C462   1.396       .  A
C457        H464   1.064       .  S
C458        C459   1.405   1_455  A
C459        C460   1.404       .  A
C459        N466   1.430       .  S
C460        C461   1.406       .  A
C460        H465   1.068       .  S
C461        C462   1.411   1_655  A
C462        N463   1.431       .  S
N463        O467   1.262       .  A
N463        O468   1.262       .  A
N466        O470   1.262       .  A
N466        O469   1.262   1_655  A
C471        C472   1.407   1_655  A
C471        C476   1.395       .  A
C471        H478   1.084       .  S
C472        C473   1.415       .  A
C473        C474   1.405   1_455  A
C473        N480   1.429       .  S
C474        C475   1.405       .  A
C474        H479   1.084       .  S
C475        C476   1.411       .  A
C476        N477   1.434       .  S
N477        O481   1.262       .  A
N477        O482   1.262       .  A
N480        O484   1.262       .  A
N480        O483   1.262       .  A
C485        C486   1.405       .  A
C485        C490   1.400       .  A
C485        H492   1.084       .  S
C486        C487   1.413       .  A
C487        C488   1.399       .  A
C487        N494   1.430       .  S
C488        C489   1.406       .  A
C488        H493   1.084       .  S
C489        C490   1.414       .  A
C490        N491   1.430       .  S
N491        O495   1.262       .  A
N491        O496   1.262       .  A
N494        O498   1.262       .  A
N494        O497   1.262       .  A
C499        C500   1.410       .  A
C499        C504   1.403       .  A
C499        H506   1.083       .  S
C500        C501   1.417       .  A
C501        C502   1.400       .  A
C501        N508   1.432       .  S
C502        C503   1.407       .  A
C502        H507   1.083       .  S
C503        C504   1.414       .  A
C504        N505   1.431       .  S
N505        O509   1.262       .  A
N505        O510   1.262       .  A
N508        O512   1.262       .  A
N508        O511   1.262       .  A
Fe513       O529   2.066       .  S
Fe513       O519   2.042       .  S
Fe513       O526   2.041       .  S
Fe513       O518   2.055       .  S
Fe513       O524   1.968       .  S
Fe514       O517   2.074       .  S
Fe514       O521   2.070       .  S
Fe514       O525   2.089       .  S
Fe514       O530   2.062       .  S
Fe514       O524   1.983       .  S
Fe515       O533   2.054       .  S
Fe515       O520   2.064       .  S
Fe515       O527   2.080       .  S
Fe515       O516   2.064       .  S
Fe515       O524   1.983       .  S
O516        C523   1.265       .  A
O517        C531   1.269       .  A
O518        C523   1.266       .  A
O519        C522   1.267       .  A
O520        C532   1.270       .  A
O521        C534   1.270       .  A
C522        O527   1.271       .  A
C522        C984   1.479       .  S
C523        C970   1.464       .  S
O525        C528   1.271       .  A
O526        C528   1.264       .  A
C528        C945   1.480       .  S
O529        C534   1.270       .  A
O530        C532   1.270       .  A
C531        O533   1.268       .  A
C531       C1012   1.494       .  S
C532        C998   1.485       .  S
C534        C956   1.490       .  S
Fe535       O551   2.040       .  S
Fe535       O541   2.066       .  S
Fe536       O547   2.072   1_554  S
Fe536       O552   2.075   1_554  S
Fe536       O546   1.967       .  S
Fe537       O542   2.054       .  S
Fe537       O538   2.094       .  S
Fe537       O546   1.966   1_556  S
O538        C545   1.276       .  A
O539        C553   1.269       .  A
O540        C545   1.269       .  A
O541        C544   1.267       .  A
O542        C554   1.268       .  A
O543        C556   1.276       .  A
C544        O549   1.266       .  A
C544        C914   1.479       .  S
C545        C931   1.476       .  S
O547        C550   1.268       .  A
O548        C550   1.264       .  A
C550        C903   1.488       .  S
O551        C556   1.269       .  A
O552        C554   1.271       .  A
C553        O555   1.272       .  A
C553       C1001   1.487       .  S
C554       C1015   1.488       .  S
C556        C886   1.479       .  S
Fe557       O573   2.055   1_554  S
Fe557       O563   2.044   1_554  S
Fe558       O561   2.075   1_554  S
Fe558       O565   2.072   1_554  S
Fe559       O564   2.080       .  S
Fe559       O560   2.063       .  S
Fe559       O568   1.957       .  S
O560        C567   1.265       .  A
O561        C575   1.271       .  A
O562        C567   1.263       .  A
O563        C566   1.270       .  A
O564        C576   1.274       .  A
O565        C578   1.267       .  A
C566        O571   1.276       .  A
C566        C987   1.474       .  S
C567        C973   1.471       .  S
O569        C572   1.275       .  A
O570        C572   1.269       .  A
C572        C830   1.477       .  S
O573        C578   1.265       .  A
O574        C576   1.271       .  A
C575        O577   1.269       .  A
C575        C858   1.488       .  S
C576        C872   1.487       .  S
C578        C844   1.484       .  S
Fe579       O595   2.042       .  S
Fe579       O585   2.045       .  S
Fe579       O592   2.052       .  S
Fe579       O584   2.050       .  S
Fe579       O590   1.964       .  S
Fe580       O583   2.064       .  S
Fe580       O587   2.072       .  S
Fe580       O591   2.074       .  S
Fe580       O596   2.066       .  S
Fe580       O590   1.984       .  S
Fe581       O599   2.069       .  S
Fe581       O586   2.061       .  S
Fe581       O593   2.073       .  S
Fe581       O582   2.078       .  S
Fe581       O590   1.983       .  S
O582        C589   1.272       .  A
O583        C597   1.272       .  A
O584        C589   1.269       .  A
O585        C588   1.262       .  A
O586        C598   1.267       .  A
O587        C600   1.267       .  A
C588        O593   1.267       .  A
C588        C917   1.466       .  S
C589        C928   1.484       .  S
O591        C594   1.272       .  A
O592        C594   1.267       .  A
C594        C816   1.487       .  S
O595        C600   1.264       .  A
O596        C598   1.268       .  A
C597        O599   1.272       .  A
C597        C875   1.489       .  S
C598        C861   1.488       .  S
C600        C805   1.467       .  S
Fe601       O617   2.033       .  S
Fe601       O607   2.066       .  S
Fe602       O613   2.068       .  S
Fe602       O618   2.074       .  S
Fe602       O612   1.970       .  S
Fe603       O608   2.055       .  S
Fe603       O604   2.100       .  S
Fe603       O612   1.967       .  S
O604        C611   1.277       .  A
O605        C619   1.268       .  A
O606        C611   1.267       .  A
O607        C610   1.266       .  A
O608        C620   1.268       .  A
O609        C622   1.279       .  A
C610        O615   1.267       .  A
C610        C763   1.476       .  S
C611        C746   1.479       .  S
O613        C616   1.268       .  A
O614        C616   1.270       .  A
C616        C942   1.489       .  S
O617        C622   1.265       .  A
O618        C620   1.270       .  A
C619        O621   1.274       .  A
C619        C788   1.486       .  S
C620        C774   1.493       .  S
C622        C959   1.483       .  S
Fe623       O639   2.039       .  S
Fe623       O629   2.035       .  S
Fe623       O636   2.040       .  S
Fe623       O628   2.045       .  S
Fe623       O634   1.965       .  S
Fe624       O627   2.069       .  S
Fe624       O631   2.077       .  S
Fe624       O635   2.081       .  S
Fe624       O640   2.061       .  S
Fe624       O634   1.988       .  S
Fe625       O643   2.064       .  S
Fe625       O630   2.065       .  S
Fe625       O637   2.077       .  S
Fe625       O626   2.074       .  S
Fe625       O634   1.985       .  S
O626        C633   1.271       .  A
O627        C641   1.272       .  A
O628        C633   1.267       .  A
O629        C632   1.263       .  A
O630        C642   1.268       .  A
O631        C644   1.267       .  A
C632        O637   1.268       .  A
C632        C900   1.473       .  S
C633        C889   1.483       .  S
O635        C638   1.271       .  A
O636        C638   1.266       .  A
C638        C718   1.483       .  S
O639        C644   1.262       .  A
O640        C642   1.268       .  A
C641        O643   1.271       .  A
C641        C791   1.481       .  S
C642        C777   1.493       .  S
C644        C735   1.466       .  S
Fe645       O661   2.051       .  S
Fe645       O651   2.039       .  S
Fe646       O657   2.090       .  S
Fe646       O662   2.061       .  S
Fe646       O656   1.966       .  S
Fe647       O652   2.085       .  S
Fe647       O648   2.066       .  S
Fe647       O656   1.967       .  S
O648        C655   1.267       .  A
O649        C663   1.274       .  A
O650        C655   1.265       .  A
O651        C654   1.268       .  A
O652        C664   1.274       .  A
O653        C666   1.266       .  A
C654        O659   1.274       .  A
C654        C819   1.480       .  S
C655        C802   1.476       .  S
O657        C660   1.273       .  A
O658        C660   1.268       .  A
C660        C721   1.474       .  S
O661        C666   1.265       .  A
O662        C664   1.271       .  A
C663        O665   1.271       .  A
C663        C704   1.485       .  S
C664        C690   1.493       .  S
C666        C732   1.479       .  S
Fe667       O683   2.050       .  S
Fe667       O673   2.060       .  S
Fe667       O680   2.060       .  S
Fe667       O672   2.046       .  S
Fe667       O678   1.959       .  S
Fe668       O671   2.068       .  S
Fe668       O675   2.090       .  S
Fe668       O679   2.071       .  S
Fe668       O684   2.082       .  S
Fe668       O678   1.971       .  S
Fe669       O687   2.071       .  S
Fe669       O674   2.062       .  S
Fe669       O681   2.068       .  S
Fe669       O670   2.089       .  S
Fe669       O678   1.973       .  S
O670        C677   1.273       .  A
O671        C685   1.271       .  A
O672        C677   1.269       .  A
O673        C676   1.265       .  A
O674        C686   1.270       .  A
O675        C688   1.273       .  A
C676        O681   1.265       .  A
C676        C760   1.469       .  S
C677        C749   1.475       .  S
O679        C682   1.269       .  A
O680        C682   1.267       .  A
C682        C833   1.488       .  S
O683        C688   1.268       .  A
O684        C686   1.270       .  A
C685        O687   1.272       .  A
C685        C707   1.485       .  S
C686        C693   1.499       .  S
C688        C847   1.479       .  S
C689        C690   1.405       .  A
C689        C694   1.404       .  A
C689        H696   1.084       .  S
C690        C691   1.412       .  A
C691        C692   1.403       .  A
C691        N698   1.429       .  S
C692        C693   1.411       .  A
C692        H697   1.083       .  S
C693        C694   1.420       .  A
C694        N695   1.433       .  S
N695        O699   1.262       .  A
N695        O700   1.262       .  A
N698        O702   1.262       .  A
N698        O701   1.262       .  A
C703        C704   1.406       .  A
C703        C708   1.403       .  A
C703        H710   1.084       .  S
C704        C705   1.414       .  A
C705        C706   1.401       .  A
C705        N712   1.433       .  S
C706        C707   1.405       .  A
C706        H711   1.084       .  S
C707        C708   1.413       .  A
C708        N709   1.430       .  S
N709        O713   1.262       .  A
N709        O714   1.262       .  A
N712        O716   1.262       .  A
N712        O715   1.263       .  A
C717        C718   1.406       .  A
C717        C722   1.393       .  A
C717        H724   1.084       .  S
C718        C719   1.415       .  A
C719        C720   1.408       .  A
C719        N726   1.433       .  S
C720        C721   1.405       .  A
C720        H725   1.084       .  S
C721        C722   1.408       .  A
C722        N723   1.435       .  S
N723        O727   1.262       .  A
N723        O728   1.262       .  A
N726        O730   1.263       .  A
N726        O729   1.262       .  A
C731        C732   1.406       .  A
C731        C736   1.405       .  A
C731        H738   1.084       .  S
C732        C733   1.414       .  A
C733        C734   1.395       .  A
C733        N740   1.434       .  S
C734        C735   1.398       .  A
C734        H739   1.085       .  S
C735        C736   1.408       .  A
C736        N737   1.429       .  S
N737        O741   1.262       .  A
N737        O742   1.262       .  A
N740        O744   1.262       .  A
N740        O743   1.262       .  A
C745        C746   1.404   1_655  A
C745        C750   1.393       .  A
C745        H752   1.084       .  S
C746        C747   1.413       .  A
C747        C748   1.409   1_455  A
C747        N754   1.432       .  S
C748        C749   1.406       .  A
C748        H753   1.084       .  S
C749        C750   1.408       .  A
C750        N751   1.433       .  S
N751        O755   1.262       .  A
N751        O756   1.262       .  A
N754        O758   1.262       .  A
N754        O757   1.262       .  A
C759        C760   1.399       .  A
C759        C764   1.400       .  A
C759        H766   1.083       .  S
C760        C761   1.409   1_655  A
C761        C762   1.403       .  A
C761        N768   1.431       .  S
C762        C763   1.404       .  A
C762        H767   1.084       .  S
C763        C764   1.412   1_455  A
C764        N765   1.430       .  S
N765        O769   1.262       .  A
N765        O770   1.262       .  A
N768        O772   1.262       .  A
N768        O771   1.262       .  A
C773        C774   1.408       .  A
C773        C778   1.401       .  A
C773        H780   1.084       .  S
C774        C775   1.416       .  A
C775        C776   1.401       .  A
C775        N782   1.431       .  S
C776        C777   1.407       .  A
C776        H781   1.084       .  S
C777        C778   1.416       .  A
C778        N779   1.431       .  S
N779        O783   1.262       .  A
N779        O784   1.262       .  A
N782        O786   1.262       .  A
N782        O785   1.262       .  A
C787        C788   1.406       .  A
C787        C792   1.402       .  A
C787        H794   1.084       .  S
C788        C789   1.417       .  A
C789        C790   1.401       .  A
C789        N796   1.434       .  S
C790        C791   1.403       .  A
C790        H795   1.084       .  S
C791        C792   1.414       .  A
C792        N793   1.434       .  S
N793        O797   1.262       .  A
N793        O798   1.262       .  A
N796        O800   1.263       .  A
N796        O799   1.262       .  A
C801        C802   1.404       .  A
C801        C806   1.403   1_545  A
C801        H808   1.083       .  S
C802        C803   1.413   1_545  A
C803        C804   1.394       .  A
C803        N810   1.430       .  S
C804        C805   1.398       .  A
C804        H809   1.085       .  S
C805        C806   1.409       .  A
C806        N807   1.430   1_565  S
N807        O811   1.262   1_545  A
N807        O812   1.262       .  A
N810        O814   1.262       .  A
N810        O813   1.261       .  A
C815        C816   1.407       .  A
C815        C820   1.405   1_565  A
C815        H822   1.084       .  S
C816        C817   1.418   1_565  A
C817        C818   1.395       .  A
C817        N824   1.433       .  S
C818        C819   1.401       .  A
C818        H823   1.084       .  S
C819        C820   1.413       .  A
C820        N821   1.430       .  S
N821        O825   1.262   1_545  A
N821        O826   1.262       .  A
N824        O828   1.262       .  A
N824        O827   1.262       .  A
C829        C830   1.402       .  A
C829        C834   1.402       .  A
C829        H836   1.084       .  S
C830        C831   1.410       .  A
C831        C832   1.399       .  A
C831        N838   1.433       .  S
C832        C833   1.408       .  A
C832        H837   1.084       .  S
C833        C834   1.414       .  A
C834        N835   1.428       .  S
N835        O839   1.262       .  A
N835        O840   1.262       .  A
N838        O842   1.262       .  A
N838        O841   1.262       .  A
C843        C844   1.405       .  A
C843        C848   1.394       .  A
C843        H850   1.084       .  S
C844        C845   1.413       .  A
C845        C846   1.407       .  A
C845        N852   1.430       .  S
C846        C847   1.406       .  A
C846        H851   1.084       .  S
C847        C848   1.408       .  A
C848        N849   1.429       .  S
N849        O853   1.262       .  A
N849        O854   1.262       .  A
N852        O856   1.262       .  A
N852        O855   1.262       .  A
C857        C858   1.405       .  A
C857        C862   1.399       .  A
C857        H864   1.084       .  S
C858        C859   1.415       .  A
C859        C860   1.402       .  A
C859        N866   1.430       .  S
C860        C861   1.406       .  A
C860        H865   1.083       .  S
C861        C862   1.414       .  A
C862        N863   1.430       .  S
N863        O867   1.262       .  A
N863        O868   1.262       .  A
N866        O870   1.262       .  A
N866        O869   1.262       .  A
C871        C872   1.405       .  A
C871        C876   1.400       .  A
C871        H878   1.084       .  S
C872        C873   1.414       .  A
C873        C874   1.401       .  A
C873        N880   1.431       .  S
C874        C875   1.407       .  A
C874        H879   1.084       .  S
C875        C876   1.416       .  A
C876        N877   1.432       .  S
N877        O881   1.262       .  A
N877        O882   1.262       .  A
N880        O884   1.261       .  A
N880        O883   1.262       .  A
C885        C886   1.405       .  A
C885        C890   1.405   1_565  A
C885        H892   1.084       .  S
C886        C887   1.412       .  A
C887        C888   1.396       .  A
C887        N894   1.435       .  S
C888        C889   1.406   1_565  A
C888        H893   1.084       .  S
C889        C890   1.414       .  A
C890        N891   1.433       .  S
N891        O895   1.263       .  A
N891        O896   1.262       .  A
N894        O898   1.262       .  A
N894        O897   1.262       .  A
C899        C900   1.398       .  A
C899        C904   1.392       .  A
C899        H906   1.085       .  S
C900        C901   1.409   1_545  A
C901        C902   1.406       .  A
C901        N908   1.429       .  S
C902        C903   1.409       .  A
C902        H907   1.083       .  S
C903        C904   1.419   1_565  A
C904        N905   1.431       .  S
N905        O909   1.262       .  A
N905        O910   1.262       .  A
N908        O912   1.262   1_565  A
N908        O911   1.262       .  A
C913        C914   1.405       .  A
C913        C918   1.404       .  A
C913        H920   1.084       .  S
C914        C915   1.415       .  A
C915        C916   1.400       .  A
C915        N922   1.436       .  S
C916        C917   1.399       .  A
C916        H921   1.084       .  S
C917        C918   1.409       .  A
C918        N919   1.433       .  S
N919        O923   1.263       .  A
N919        O924   1.262       .  A
N922        O926   1.263       .  A
N922        O925   1.262       .  A
C927        C928   1.406       .  A
C927        C932   1.396       .  A
C927        H934   1.084       .  S
C928        C929   1.413       .  A
C929        C930   1.405       .  A
C929        N936   1.429       .  S
C930        C931   1.404       .  A
C930        H935   1.084       .  S
C931        C932   1.411       .  A
C932        N933   1.434       .  S
N933        O937   1.262       .  A
N933        O938   1.262       .  A
N936        O940   1.262       .  A
N936        O939   1.262       .  A
C941        C942   1.405       .  A
C941        C946   1.393       .  A
C941        H948   1.084       .  S
C942        C943   1.418       .  A
C943        C944   1.409       .  A
C943        N950   1.430       .  S
C944        C945   1.404       .  A
C944        H949   1.084       .  S
C945        C946   1.409       .  A
C946        N947   1.428       .  S
N947        O951   1.261       .  A
N947        O952   1.262       .  A
N950        O954   1.262       .  A
N950        O953   1.262       .  A
C955        C956   1.405       .  A
C955        C960   1.399       .  A
C955        H962   1.084       .  S
C956        C957   1.415       .  A
C957        C958   1.405       .  A
C957        N964   1.427       .  S
C958        C959   1.403       .  A
C958        H963   1.084       .  S
C959        C960   1.415       .  A
C960        N961   1.433       .  S
N961        O965   1.262       .  A
N961        O966   1.262       .  A
N964        O968   1.262       .  A
N964        O967   1.262       .  A
C969        C970   1.398       .  A
C969        C974   1.398       .  A
C969        H976   1.082       .  S
C970        C971   1.408   1_455  A
C971        C972   1.402       .  A
C971        N978   1.434       .  S
C972        C973   1.402       .  A
C972        H977   1.082       .  S
C973        C974   1.411   1_655  A
C974        N975   1.430       .  S
N975        O979   1.262       .  A
N975        O980   1.262       .  A
N978        O982   1.262       .  A
N978        O981   1.262       .  A
C983        C984   1.404   1_655  A
C983        C988   1.393       .  A
C983        H990   1.084       .  S
C984        C985   1.412       .  A
C985        C986   1.405   1_455  A
C985        N992   1.429       .  S
C986        C987   1.405       .  A
C986        H991   1.084       .  S
C987        C988   1.408       .  A
C988        N989   1.432       .  S
N989        O993   1.262       .  A
N989        O994   1.262       .  A
N992        O996   1.262       .  A
N992        O995   1.262       .  A
C997        C998   1.406       .  A
C997       C1002   1.401       .  A
C997       H1004   1.084       .  S
C998        C999   1.414       .  A
C999       C1000   1.398       .  A
C999       N1006   1.430       .  S
C1000      C1001   1.406       .  A
C1000      H1005   1.084       .  S
C1001      C1002   1.415       .  A
C1002      N1003   1.430       .  S
N1003      O1007   1.262       .  A
N1003      O1008   1.262       .  A
N1006      O1010   1.262       .  A
N1006      O1009   1.262       .  A
C1011      C1012   1.410       .  A
C1011      C1016   1.402       .  A
C1011      H1018   1.083       .  S
C1012      C1013   1.418       .  A
C1013      C1014   1.401       .  A
C1013      N1020   1.433       .  S
C1014      C1015   1.405       .  A
C1014      H1019   1.084       .  S
C1015      C1016   1.413       .  A
C1016      N1017   1.433       .  S
N1017      O1021   1.262       .  A
N1017      O1022   1.262       .  A
N1020      O1024   1.262       .  A
N1020      O1023   1.262       .  A
