geometry optimzed in LAMMPS
_audit_creation_date              2020-11-30 
_audit_creation_method            'lammps2cif' 
_symmetry_space_group_name_H-M    'P1' 
_symmetry_Int_Tables_number       1 
_symmetry_cell_setting            triclinic 
loop_ 
_symmetry_equiv_pos_as_xyz 
  x,y,z 
_cell_length_a                    30.10505795 
_cell_length_b                    30.166507600818036 
_cell_length_c                    42.43409103359374 
_cell_angle_alpha                 89.37292088872579 
_cell_angle_beta                  89.89430467072269 
_cell_angle_gamma                 120.52247741749672 
loop_ 
_atom_site_label 
_atom_site_type_symbol 
_atom_site_fract_x 
_atom_site_fract_y 
_atom_site_fract_z 
_atom_site_charge 
O1          O  0.49468184  0.62426554  0.20423676    -0.85500
O2          O  0.43721455  0.63099834  0.15678837    -0.82600
C3          C  0.47134284  0.65528751  0.13597899     0.97900
O4          O  0.49073864  0.63337416  0.12082364    -0.82600
O5          O  0.52348007  0.56438033  0.10971591    -0.85200
C6          C  0.56194920  0.57632745  0.12714792     1.02500
O7          O  0.55686811  0.57076325  0.15664668    -0.78000
O8          O  0.51678346  0.56670330  0.21530571    -0.78200
C9          C  0.52174482  0.61060577  0.21942449     1.02400
O10         O  0.41378007  0.52467659  0.22068010    -0.85500
O11         O  0.36010498  0.52592264  0.16850735    -0.82600
C12         C  0.34977134  0.53193926  0.14059180     0.98000
O13         O  0.38500786  0.55081354  0.11971397    -0.82600
O14         O  0.41856229  0.48084697  0.11360865    -0.85200
C15         C  0.43780744  0.45390486  0.12208037     1.02400
O16         O  0.47313166  0.47059259  0.14247449    -0.78000
O17         O  0.42706143  0.46752986  0.19873053    -0.78200
C18         C  0.40408032  0.47895721  0.21898892     1.02400
Cr19       Cr  0.42861216  0.57450862  0.18559223     1.93700
Cr20       Cr  0.45474834  0.55677935  0.11907140     1.93200
Cr21       Cr  0.49088962  0.52113984  0.17713251     1.39100
O22         O  0.45857428  0.55106926  0.16048685    -1.23300
O23         O  0.43630703  0.91820513  0.23485150    -0.85500
O24         O  0.37196417  0.86144076  0.18702915    -0.82600
C25         C  0.35487143  0.84669938  0.15972771     0.97900
O26         O  0.38553293  0.86102193  0.13618022    -0.82600
O27         O  0.42088827  0.96353008  0.12789419    -0.85200
C28         C  0.44090017  0.01001665  0.13538998     1.02500
O29         O  0.47878266  0.02994985  0.15406620    -0.78000
O30         O  0.44052176  0.98493864  0.21201115    -0.78200
C31         C  0.42129865  0.95028067  0.23304588     1.02400
O32         O  0.51313142  0.89973085  0.20880537    -0.85500
O33         O  0.44390977  0.83186947  0.16738887    -0.82600
C34         C  0.47359714  0.84107530  0.14410917     0.98000
O35         O  0.49090033  0.88249416  0.12868494    -0.82600
O36         O  0.52494829  0.98429292  0.11712049    -0.85200
C37         C  0.56608210  0.01095446  0.13256587     1.02400
O38         O  0.56462791  0.01453585  0.16212579    -0.78000
O39         O  0.53449976  0.97811244  0.22241534    -0.78200
C40         C  0.54323130  0.94101467  0.22248335     1.02400
Cr41       Cr  0.44309553  0.88168704  0.19767322     1.93700
Cr42       Cr  0.45646810  0.92379280  0.13047654     1.93200
Cr43       Cr  0.50202000  0.99746632  0.18676468     1.39100
O44         O  0.46758866  0.93461328  0.17132213    -1.23300
O45         O  0.11673048  0.50238784  0.20590972    -0.85500
O46         O  0.18017167  0.57531147  0.16318412    -0.82600
C47         C  0.17078457  0.54572467  0.14024964     0.97900
O48         O  0.12958120  0.52906918  0.12504341    -0.82600
O49         O  0.02700101  0.49392004  0.11552350    -0.85200
C50         C  0.00210372  0.45046561  0.12924959     1.02500
O51         O  0.00196374  0.44697873  0.15898495    -0.78000
O52         O  0.03669889  0.47452077  0.22037274    -0.78200
C53         C  0.07655216  0.47009562  0.22050672     1.02400
O54         O  0.09168390  0.57330118  0.23316099    -0.85500
O55         O  0.14648470  0.64246749  0.18533126    -0.82600
C56         C  0.16246384  0.66111691  0.15812048     0.98000
O57         O  0.14784012  0.63194946  0.13440673    -0.82600
O58         O  0.04243224  0.59295436  0.12932711    -0.85200
C59         C  0.99475821  0.56537236  0.13514243     1.02400
O60         O  0.97833479  0.52708838  0.15392829    -0.78000
O61         O  0.02109163  0.56299958  0.21238342    -0.78200
C62         C  0.05610334  0.58371541  0.23269333     1.02400
Cr63       Cr  0.12985549  0.57159834  0.19513956     1.93700
Cr64       Cr  0.08617555  0.56106369  0.12906249     1.93200
Cr65       Cr  0.01393176  0.50583090  0.18563748     1.39100
O66         O  0.07643323  0.54593404  0.16976499    -1.23300
O67         O  0.42383259  0.19112502  0.06620444    -0.85500
O68         O  0.47901985  0.18404791  0.01695072    -0.82600
C69         C  0.49432818  0.18306010  0.48948817     0.97900
O70         O  0.47971592  0.19935593  0.46630890    -0.82600
O71         O  0.37688702  0.12657457  0.46197053    -0.85200
C72         C  0.33017818  0.09982949  0.47022408     1.02500
O73         O  0.31031647  0.11835747  0.48835038    -0.78000
O74         O  0.35483625  0.12771764  0.04602894    -0.78200
C75         C  0.39049966  0.14389779  0.06599716     1.02400
O76         O  0.44114359  0.28596157  0.04042753    -0.85500
O77         O  0.50574530  0.28499680  0.99602284    -0.82600
C78         C  0.49339623  0.30574210  0.47451063     0.98000
O79         O  0.45290740  0.27930644  0.45894788    -0.82600
O80         O  0.35195792  0.20537599  0.44939863    -0.85200
C81         C  0.32629282  0.22109366  0.46441806     1.02400
O82         O  0.32480778  0.21955473  0.49414675    -0.78000
O83         O  0.36162581  0.22828611  0.05410921    -0.78200
C84         C  0.40005095  0.27391465  0.05498195     1.02400
Cr85       Cr  0.45860189  0.23427619  0.02808245     1.93700
Cr86       Cr  0.41469397  0.20276711  0.46209126     1.93200
Cr87       Cr  0.34224636  0.17538973  0.01968820     1.39100
O88         O  0.40484407  0.20425701  0.00313045    -1.23300
O89         O  0.83255547  0.28744387  0.03841413    -0.85500
O90         O  0.76170737  0.27987584  0.99550111    -0.82600
C91         C  0.79015522  0.30304432  0.47199094     0.97900
O92         O  0.81284027  0.28375119  0.45753814    -0.82600
O93         O  0.85105570  0.21859624  0.44634975    -0.85200
C94         C  0.89303915  0.23267634  0.46053943     1.02500
O95         O  0.89453230  0.23351045  0.49037445    -0.78000
O96         O  0.86079572  0.23538948  0.05152887    -0.78200
C97         C  0.86428545  0.27917072  0.05271516     1.02400
O98         O  0.76133536  0.18845995  0.06333572    -0.85500
O99         O  0.69535912  0.17581404  0.01449815    -0.82600
C100        C  0.67905414  0.17663202  0.48725786     0.98000
O101        O  0.71034076  0.19477194  0.46415380    -0.82600
O102        O  0.75142616  0.13175884  0.45721026    -0.85200
C103        C  0.77752926  0.11074480  0.46341285     1.02400
O104        O  0.81385908  0.13054531  0.48307806    -0.78000
O105        O  0.77248345  0.13056880  0.04079345    -0.78200
C106        C  0.75049523  0.14245444  0.06152296     1.02400
Cr107      Cr  0.76489489  0.23113291  0.02612226     1.93700
Cr108      Cr  0.78243110  0.20741086  0.45934199     1.93200
Cr109      Cr  0.83254265  0.18423384  0.01574443     1.39100
O110        O  0.79399366  0.20800268  0.00014081    -1.23300
O111        O  0.74321875  0.56651298  0.05867491    -0.85500
O112        O  0.68431078  0.51411124  0.00701627    -0.82600
C113        C  0.67153652  0.49879726  0.47914357     0.97900
O114        O  0.70570244  0.51370469  0.45766108    -0.82600
O115        O  0.74596870  0.61790279  0.45105707    -0.85200
C116        C  0.76688272  0.66411782  0.45955018     1.02500
O117        O  0.80347729  0.68176509  0.47921000    -0.78000
O118        O  0.76009106  0.63865933  0.03616379    -0.78200
C119        C  0.73644430  0.60436857  0.05690483     1.02400
O120        O  0.81852567  0.54198672  0.03954945    -0.85500
O121        O  0.75433521  0.47987549  0.99309490    -0.82600
C122        C  0.78504178  0.48679504  0.47075661     0.98000
O123        O  0.80879607  0.52967511  0.45652276    -0.82600
O124        O  0.84852054  0.63370387  0.44469245    -0.85200
C125        C  0.88816262  0.65833890  0.46158498     1.02400
O126        O  0.88409467  0.65908249  0.49108844    -0.78000
O127        O  0.84693468  0.62308694  0.05040195    -0.78200
C128        C  0.84890852  0.58222824  0.05426371     1.02400
Cr129      Cr  0.75256224  0.52987462  0.02262720     1.93700
Cr130      Cr  0.77795134  0.57471728  0.45566296     1.93200
Cr131      Cr  0.82086760  0.64596247  0.01310296     1.39100
O132        O  0.78426546  0.58375588  0.99700417    -1.23300
O133        O  0.76355344  0.85507449  0.39549647    -0.85500
O134        O  0.81663384  0.84070625  0.34783642    -0.82600
C135        C  0.83302159  0.83921954  0.32078934     0.97900
O136        O  0.82023084  0.85606748  0.29704218    -0.82600
O137        O  0.71465425  0.79399036  0.29104210    -0.85200
C138        C  0.66730619  0.77413292  0.29734549     1.02500
O139        O  0.65205276  0.79684331  0.31544266    -0.78000
O140        O  0.69266842  0.79735631  0.37366776    -0.78200
C141        C  0.72717066  0.80912259  0.39413542     1.02400
O142        O  0.79442325  0.95402713  0.37012629    -0.85500
O143        O  0.85678400  0.94419508  0.32687287    -0.82600
C144        C  0.85161766  0.96560750  0.30256744     0.98000
O145        O  0.80950080  0.94525138  0.28805740    -0.82600
O146        O  0.70563454  0.88264372  0.27784066    -0.85200
C147        C  0.68285568  0.90238058  0.29199717     1.02400
O148        O  0.68116870  0.90214389  0.32179225    -0.78000
O149        O  0.71291638  0.90276021  0.38280056    -0.78200
C150        C  0.75448868  0.94582056  0.38484711     1.02400
Cr151      Cr  0.80402337  0.89680327  0.35818039     1.93700
Cr152      Cr  0.76165053  0.86963125  0.29150400     1.93200
Cr153      Cr  0.68909024  0.85122679  0.34760946     1.39100
O154        O  0.75148325  0.87297459  0.33221137    -1.23300
O155        O  0.17227030  0.93657319  0.38332927    -0.85500
O156        O  0.11054400  0.94274373  0.33939163    -0.82600
C157        C  0.14542423  0.96878996  0.31930349     0.97900
O158        O  0.16292110  0.94720081  0.30214429    -0.82600
O159        O  0.19551263  0.87962971  0.28738184    -0.85200
C160        C  0.23523350  0.89160007  0.30371155     1.02500
O161        O  0.23144702  0.88297321  0.33309425    -0.78000
O162        O  0.19508502  0.87920693  0.39336571    -0.78200
C163        C  0.19959090  0.92294661  0.39806773     1.02400
O164        O  0.09427379  0.83723419  0.40184095    -0.85500
O165        O  0.03565728  0.83706919  0.35221090    -0.82600
C166        C  0.02240474  0.84184778  0.32485825     0.98000
O167        O  0.05618795  0.86295545  0.30313991    -0.82600
O168        O  0.09013216  0.79532000  0.29333762    -0.85200
C169        C  0.10810611  0.76694640  0.30075981     1.02400
O170        O  0.14540896  0.78273440  0.31977342    -0.78000
O171        O  0.10223617  0.77937598  0.37681189    -0.78200
C172        C  0.07997733  0.79075239  0.39760524     1.02400
Cr173      Cr  0.10509202  0.88658216  0.36715667     1.93700
Cr174      Cr  0.12676411  0.87071885  0.29939323     1.93200
Cr175      Cr  0.16626939  0.83326132  0.35492965     1.39100
O176        O  0.13348960  0.86394314  0.34028095    -1.23300
O177        O  0.05078519  0.21029341  0.36994434    -0.85500
O178        O  0.05699848  0.14583671  0.32714560    -0.82600
C179        C  0.03702130  0.15223615  0.30270521     0.97900
O180        O  0.05877518  0.19464803  0.28801058    -0.82600
O181        O  0.12584317  0.29856441  0.27703536    -0.85200
C182        C  0.10980036  0.32455619  0.29139233     1.02500
O183        O  0.10897385  0.32475521  0.32123348    -0.78000
O184        O  0.10594138  0.29006083  0.38276897    -0.78200
C185        C  0.06094898  0.25070869  0.38431299     1.02400
O186        O  0.14863363  0.23498020  0.39463630    -0.85500
O187        O  0.15911660  0.17980966  0.34671308    -0.82600
C188        C  0.15997510  0.16340886  0.31961662     0.98000
O189        O  0.14492775  0.17837969  0.29598146    -0.82600
O190        O  0.21101324  0.28328114  0.28894872    -0.85200
C191        C  0.23294770  0.33054294  0.29500350     1.02400
O192        O  0.21192000  0.34705941  0.31358341    -0.78000
O193        O  0.20884951  0.30432792  0.37140194    -0.78200
C194        C  0.19525495  0.26989659  0.39238466     1.02400
Cr195      Cr  0.10572617  0.19661050  0.35774934     1.93700
Cr196      Cr  0.13494347  0.23954761  0.29055415     1.93200
Cr197      Cr  0.15714663  0.31202732  0.34647320     1.39100
O198        O  0.13221626  0.24950663  0.33133492    -1.23300
C199        C  0.15976484  0.04599340  0.28828240    -0.21500
C200        C  0.16396456  0.02416912  0.31662415    -0.09500
C201        C  0.17767828  0.05345429  0.34417180     0.29300
C202        C  0.18189174  0.10162621  0.34407419    -0.21500
C203        C  0.17150990  0.12120870  0.31663806    -0.09500
C204        C  0.16347624  0.09431450  0.28819060     0.29300
F205        F  0.15521772  0.11258104  0.26081656    -0.20100
H206        H  0.14951999  0.02398916  0.26680499     0.17700
H207        H  0.18935462  0.12169173  0.36619678     0.17700
F208        F  0.18363857  0.03396818  0.37177591    -0.20000
C209        C  0.89622379  0.05972589  0.29078474    -0.21500
C210        C  0.89677024  0.01344677  0.29140906    -0.09500
C211        C  0.94380023  0.01466356  0.28849129     0.29300
C212        C  0.98992344  0.06146681  0.28839871    -0.21500
C213        C  0.98980309  0.10761525  0.29131428    -0.09500
C214        C  0.94284780  0.10697989  0.29079784     0.29300
F215        F  0.94204591  0.15126897  0.29406886    -0.20100
H216        H  0.86019483  0.05923108  0.29342261     0.17700
H217        H  0.02593746  0.06148030  0.28884531     0.17700
F218        F  0.94523296  0.97037918  0.28879312    -0.20000
C219        C  0.90744765  0.84456014  0.29183605    -0.21500
C220        C  0.87341811  0.82546436  0.31774955    -0.09500
C221        C  0.88461014  0.80228496  0.34306988     0.29300
C222        C  0.93161666  0.80360855  0.34384978    -0.21500
C223        C  0.96838270  0.82832151  0.31960598    -0.09500
C224        C  0.95470816  0.84638802  0.29274995     0.29300
F225        F  0.98863327  0.87012030  0.26861682    -0.20100
H226        H  0.89966166  0.86236264  0.27194813     0.17700
H227        H  0.94058399  0.78829775  0.36453277     0.17700
F228        F  0.85189904  0.78164909  0.36811159    -0.20000
C229        C  0.77296709  0.74998098  0.45570751    -0.21500
C230        C  0.75019305  0.69886581  0.44554532    -0.09500
C231        C  0.71338721  0.68266893  0.42123061     0.29300
C232        C  0.70288223  0.71790656  0.40609108    -0.21500
C233        C  0.72860914  0.76983337  0.41483951    -0.09500
C234        C  0.76236812  0.78502432  0.44068897     0.29300
F235        F  0.78688577  0.83438807  0.45077323    -0.20100
H236        H  0.80047925  0.76352761  0.47476820     0.17700
H237        H  0.67676497  0.70510498  0.38630305     0.17700
F238        F  0.68912246  0.63342088  0.41101997    -0.20000
C239        C  0.02591963  0.76370879  0.44599344    -0.21500
C240        C  0.03529811  0.75135486  0.41586883    -0.09500
C241        C  0.99708073  0.70611438  0.40158716     0.29300
C242        C  0.94950842  0.67519074  0.41681760    -0.21500
C243        C  0.93965111  0.68858792  0.44658475    -0.09500
C244        C  0.97880091  0.73276380  0.46128646     0.29300
F245        F  0.97045558  0.74813564  0.48952488    -0.20100
H246        H  0.05446021  0.79884763  0.45718491     0.17700
H247        H  0.91990841  0.64140482  0.40501409     0.17700
F248        F  0.00412874  0.69393774  0.37201208    -0.20000
C249        C  0.92945436  0.22250659  0.41047690    -0.21500
C250        C  0.93842111  0.24263765  0.44110781    -0.09500
C251        C  0.98928163  0.26803202  0.45254386     0.29300
C252        C  0.02987108  0.27273318  0.43353837    -0.21500
C253        C  0.01996645  0.25085551  0.40339642    -0.09500
C254        C  0.96939428  0.22602360  0.39201863     0.29300
F255        F  0.95844452  0.20488183  0.36292274    -0.20100
H256        H  0.89084746  0.20221040  0.40095313     0.17700
H257        H  0.06866554  0.29171217  0.44278770     0.17700
F258        F  0.99969938  0.28767437  0.48200494    -0.20000
C259        C  0.72186385  0.03290147  0.43097029    -0.21500
C260        C  0.76929994  0.06549057  0.44551110    -0.09500
C261        C  0.81075384  0.05714799  0.44056241     0.29300
C262        C  0.80511801  0.01804600  0.42089480    -0.21500
C263        C  0.75803723  0.98577220  0.40612252    -0.09500
C264        C  0.71598213  0.99285590  0.41167569     0.29300
F265        F  0.67003585  0.96257727  0.39748375    -0.20100
H266        H  0.68955650  0.03881431  0.43427044     0.17700
H267        H  0.83794666  0.01308945  0.41712274     0.17700
F268        F  0.85767240  0.08824209  0.45349560    -0.20000
C269        C  0.83695670  0.44431311  0.46084880    -0.21500
C270        C  0.78926474  0.44230057  0.46118604    -0.09500
C271        C  0.74360166  0.39449685  0.45853471     0.29300
C272        C  0.74524361  0.34926913  0.45856906    -0.21500
C273        C  0.79229917  0.35065048  0.46133920    -0.09500
C274        C  0.83854034  0.39846722  0.46099843     0.29300
F275        F  0.88449644  0.40074778  0.46415883    -0.20100
H276        H  0.87244516  0.48082117  0.46325579     0.17700
H277        H  0.70924122  0.31274658  0.45889987     0.17700
F278        F  0.69694557  0.39132794  0.45851117    -0.18200
C279        C  0.27728052  0.27049814  0.39842576    -0.21500
C280        C  0.23331360  0.26677174  0.41248961    -0.09500
C281        C  0.22199672  0.25127591  0.44423992     0.29300
C282        C  0.25367212  0.23856366  0.46140208    -0.21500
C283        C  0.29615197  0.23948740  0.44687929    -0.09500
C284        C  0.30812695  0.25633557  0.41525415     0.29300
F285        F  0.34889638  0.25806266  0.40030175    -0.20100
H286        H  0.28593221  0.28131465  0.37379198     0.17700
H287        H  0.24362221  0.22583887  0.48566504     0.17700
F288        F  0.17950070  0.24705694  0.45837783    -0.20000
C289        C  0.31889711  0.02526654  0.43790052    -0.21500
C290        C  0.29725454  0.04791247  0.45674856    -0.09500
C291        C  0.24322194  0.02252392  0.46010074     0.29300
C292        C  0.21198602  0.97845074  0.44293579    -0.21500
C293        C  0.23347813  0.95833469  0.42226708    -0.09500
C294        C  0.28718743  0.98060452  0.42076833     0.29300
F295        F  0.30889072  0.96207653  0.40072502    -0.20100
H296        H  0.36032514  0.04357125  0.43513092     0.17700
H297        H  0.17051989  0.96177347  0.44421220     0.17700
F298        F  0.22007061  0.04215781  0.47803695    -0.20000
C299        C  0.60794644  0.42709427  0.44560745    -0.21500
C300        C  0.61799474  0.45762896  0.47255308    -0.09500
C301        C  0.57898560  0.44217566  0.49558272     0.29300
C302        C  0.53420444  0.39408801  0.49369409    -0.21500
C303        C  0.52750052  0.36098466  0.46888712    -0.09500
C304        C  0.56300666  0.37878479  0.44385094     0.29300
F305        F  0.55729468  0.34723761  0.41968705    -0.20100
H306        H  0.63699964  0.43817294  0.42734933     0.17700
H307        H  0.50690361  0.38078063  0.51314822     0.17700
F308        F  0.58596651  0.47119799  0.52137694    -0.20000
C309        C  0.59070248  0.14254570  0.50912350    -0.21500
C310        C  0.62507848  0.16402989  0.48351739    -0.09500
C311        C  0.61024010  0.18195832  0.45703517     0.29300
C312        C  0.56492245  0.18401563  0.45800874    -0.21500
C313        C  0.53376183  0.16820081  0.48522885    -0.09500
C314        C  0.54544011  0.14450894  0.51005614     0.29300
F315        F  0.51497949  0.12626868  0.03619216    -0.20100
H316        H  0.60056438  0.12742032  0.02953150     0.17700
H317        H  0.55640907  0.20168957  0.43835659     0.17700
F318        F  0.64160335  0.20198676  0.43138845    -0.20000
C319        C  0.93404753  0.62384534  0.08264601    -0.21500
C320        C  0.88548448  0.58025710  0.07690468    -0.09500
C321        C  0.87253499  0.53356360  0.09223123     0.29300
C322        C  0.90749613  0.53036183  0.11227729    -0.21500
C323        C  0.95682688  0.57312929  0.11715931    -0.09500
C324        C  0.96979495  0.62025981  0.10226133     0.29300
F325        F  0.01699301  0.66257960  0.10635245    -0.20100
H326        H  0.94497312  0.66020670  0.07109306     0.17700
H327        H  0.89646593  0.49341684  0.12303963     0.17700
F328        F  0.82594018  0.49058500  0.08777172    -0.20000
C329        C  0.91484086  0.31242595  0.10241371    -0.21500
C330        C  0.90412326  0.32113031  0.07151911    -0.09500
C331        C  0.92788068  0.37162667  0.05950601     0.29300
C332        C  0.96086601  0.41276709  0.07823348    -0.21500
C333        C  0.97034599  0.40482103  0.10963358    -0.09500
C334        C  0.94732753  0.35404278  0.12157481     0.29300
F335        F  0.95530712  0.34464421  0.15176197    -0.20100
H336        H  0.89623818  0.27367818  0.11213228     0.17700
H337        H  0.97768510  0.45124018  0.06826358     0.17700
F338        F  0.91849416  0.38130254  0.02966546    -0.20000
C339        C  0.03870155  0.65425474  0.24499464    -0.21500
C340        C  0.05897833  0.62329468  0.25425868    -0.09500
C341        C  0.08966917  0.63645212  0.28141929     0.29300
C342        C  0.10352684  0.68205533  0.29715106    -0.21500
C343        C  0.08704317  0.71550165  0.28628794    -0.09500
C344        C  0.05247260  0.69994772  0.26080445     0.29300
F345        F  0.03422170  0.73010009  0.24992156    -0.20100
H346        H  0.01495796  0.64496078  0.22418297     0.17700
H347        H  0.12880783  0.69203587  0.31725818     0.17700
F348        F  0.10821956  0.60637214  0.29200894    -0.20000
C349        C  0.09776457  0.40077640  0.22326744    -0.21500
C350        C  0.07786721  0.42827292  0.23821022    -0.09500
C351        C  0.06526624  0.41922536  0.27044392     0.29300
C352        C  0.07423434  0.38436997  0.28755554    -0.21500
C353        C  0.09547638  0.35763148  0.27273772    -0.09500
C354        C  0.10625380  0.36571796  0.24008423     0.29300
F355        F  0.12702833  0.34146167  0.22440022    -0.20100
H356        H  0.10762082  0.40715243  0.19844397     0.17700
H357        H  0.06577123  0.37931839  0.31258885     0.17700
F358        F  0.04732386  0.44632862  0.28575716    -0.20000
C359        C  0.36905579  0.05502869  0.08232793    -0.21500
C360        C  0.39605620  0.10821341  0.08781456    -0.09500
C361        C  0.43347556  0.12748894  0.11173230     0.29300
C362        C  0.44608533  0.09488595  0.12795572    -0.21500
C363        C  0.42177753  0.04231319  0.12093787    -0.09500
C364        C  0.38156265  0.02227562  0.09869136     0.29300
F365        F  0.35561656  0.97145812  0.09170142    -0.20100
H366        H  0.33992265  0.03901416  0.06420004     0.17700
H367        H  0.47643136  0.11141177  0.14532103     0.17700
F368        F  0.45956366  0.17831728  0.11870492    -0.20000
C369        C  0.65712072  0.08414519  0.12968399    -0.21500
C370        C  0.61636945  0.04027481  0.11574523    -0.09500
C371        C  0.62389896  0.02637823  0.08544184     0.29300
C372        C  0.67012123  0.05753044  0.06889068    -0.21500
C373        C  0.70910917  0.10338039  0.08201729    -0.09500
C374        C  0.70278143  0.11570779  0.11291213     0.29300
F375        F  0.74001595  0.15944699  0.12643557    -0.20100
H376        H  0.65274375  0.09550423  0.15305071     0.17700
H377        H  0.67400415  0.04762072  0.04501581     0.17700
F378        F  0.58623400  0.98345427  0.07145689    -0.20000
C379        C  0.34371408  0.95824118  0.24320685    -0.21500
C380        C  0.37894432  0.94408751  0.25405085    -0.09500
C381        C  0.36884670  0.91729059  0.28302138     0.29300
C382        C  0.32323824  0.90264828  0.29980363    -0.21500
C383        C  0.28625371  0.91346642  0.28781276    -0.09500
C384        C  0.29758957  0.94275270  0.25973253     0.29300
F385        F  0.26371299  0.95565471  0.24793289    -0.20100
H386        H  0.35044600  0.97876147  0.22099949     0.17700
H387        H  0.31573741  0.88059683  0.32145903     0.17700
F388        F  0.40229881  0.90372278  0.29468102    -0.20000
C389        C  0.62994221  0.94537783  0.28796361    -0.21500
C390        C  0.65475915  0.92207790  0.27317341    -0.09500
C391        C  0.64859677  0.91367918  0.24041679     0.29300
C392        C  0.61487882  0.92388141  0.22377269    -0.21500
C393        C  0.58731679  0.94350804  0.23902212    -0.09500
C394        C  0.59663032  0.95635803  0.27095943     0.29300
F395        F  0.57031925  0.97528969  0.28626359    -0.20100
H396        H  0.63442351  0.95291737  0.31299114     0.17700
H397        H  0.60829383  0.91400754  0.19906271     0.17700
F398        F  0.67242906  0.89253459  0.22460771    -0.20000
C399        C  0.21772748  0.74778057  0.18107030    -0.21500
C400        C  0.20373218  0.71563944  0.15478367    -0.09500
C401        C  0.23522310  0.73341908  0.12755850     0.29300
C402        C  0.28283731  0.77913726  0.12831809    -0.21500
C403        C  0.29969826  0.80779591  0.15606880    -0.09500
C404        C  0.26518652  0.79352142  0.18178937     0.29300
F405        F  0.27862597  0.82161361  0.20854148    -0.20100
H406        H  0.19357610  0.73576023  0.20204189     0.17700
H407        H  0.30816445  0.78978816  0.10795412     0.17700
F408        F  0.22260861  0.70449916  0.10120457    -0.20000
C409        C  0.67047075  0.62889883  0.06741596    -0.21500
C410        C  0.69868127  0.60637125  0.07816004    -0.09500
C411        C  0.68558844  0.58011087  0.10740885     0.29300
C412        C  0.64304223  0.57386250  0.12450960    -0.21500
C413        C  0.61230216  0.59261177  0.11238520    -0.09500
C414        C  0.62720561  0.62159327  0.08418674     0.29300
F415        F  0.59889686  0.64128951  0.07230637    -0.20100
H416        H  0.67984267  0.64928228  0.04501659     0.17700
H417        H  0.63219306  0.55146515  0.14620411     0.17700
F418        F  0.71256741  0.55865723  0.11887416    -0.20000
C419        C  0.42940090  0.32739414  0.10232564    -0.21500
C420        C  0.39983826  0.31326344  0.07492833    -0.09500
C421        C  0.37921941  0.34321180  0.06419224     0.29300
C422        C  0.38967692  0.38785765  0.08033514    -0.21500
C423        C  0.42134481  0.40346573  0.10716686    -0.09500
C424        C  0.43993043  0.37171393  0.11844898     0.29300
F425        F  0.46999429  0.38423995  0.14442883    -0.20100
H426        H  0.44629407  0.30510146  0.11052026     0.17700
H427        H  0.37486985  0.41135668  0.07103156     0.17700
F428        F  0.35181090  0.33109096  0.03709613    -0.20000
C429        C  0.54175034  0.67371972  0.26149256    -0.21500
C430        C  0.55766025  0.64611805  0.24294460    -0.09500
C431        C  0.60864623  0.65660003  0.24515658     0.29300
C432        C  0.64407318  0.69701143  0.26401438    -0.21500
C433        C  0.62871502  0.72657600  0.28138175    -0.09500
C434        C  0.57648733  0.71307039  0.28079415     0.29300
F435        F  0.55925683  0.73971336  0.29735175    -0.20100
H436        H  0.50237335  0.66569749  0.26033301     0.17700
H437        H  0.68387094  0.70627634  0.26419022     0.17700
F438        F  0.62500447  0.63028600  0.22750540    -0.20000
C439        C  0.34254733  0.45636751  0.26344428    -0.21500
C440        C  0.36504677  0.44002017  0.24081286    -0.09500
C441        C  0.34674233  0.38701810  0.23811226     0.29300
C442        C  0.30515160  0.35132974  0.25684535    -0.21500
C443        C  0.28121198  0.36792164  0.27842965    -0.09500
C444        C  0.30120142  0.42110747  0.28189234     0.29300
F445        F  0.27944670  0.43953793  0.30199700    -0.20100
H446        H  0.35571957  0.49682369  0.26624759     0.17700
H447        H  0.29060270  0.31067740  0.25367376     0.17700
F448        F  0.36743933  0.36949290  0.21662418    -0.20000
C449        C  0.45790426  0.72055198  0.10885080    -0.21500
C450        C  0.48652491  0.70918244  0.13010591    -0.09500
C451        C  0.51803313  0.74614652  0.15216954     0.29300
C452        C  0.51741368  0.79199003  0.15470364    -0.21500
C453        C  0.48580606  0.80163417  0.13503849    -0.09500
C454        C  0.45771605  0.76675961  0.11117270     0.29300
F455        F  0.42598659  0.77487903  0.09240827    -0.20100
H456        H  0.43221402  0.69177722  0.09238909     0.17700
H457        H  0.53864934  0.81821982  0.17350726     0.17700
F458        F  0.54522655  0.73553613  0.17336073    -0.20000
C459        C  0.21082797  0.49386529  0.15143359    -0.21500
C460        C  0.20883585  0.53108528  0.13243857    -0.09500
C461        C  0.25012775  0.56219706  0.11214102     0.29300
C462        C  0.29444015  0.55827112  0.11243468    -0.21500
C463        C  0.29840297  0.52426350  0.13362595    -0.09500
C464        C  0.25529222  0.49035827  0.15212362     0.29300
F465        F  0.25745101  0.45647980  0.17249074    -0.20100
H466        H  0.17952283  0.47035366  0.16759142     0.17700
H467        H  0.32738702  0.58525486  0.09829012     0.17700
F468        F  0.24962506  0.59973359  0.09448167    -0.20000
O469        O  0.49467267  0.62426746  0.70424024    -0.85500
O470        O  0.43719356  0.63098807  0.65679316    -0.82600
C471        C  0.47131493  0.65527537  0.63597993     0.97900
O472        O  0.49072143  0.63336716  0.62082991    -0.82600
O473        O  0.52347044  0.56437813  0.60972208    -0.85200
C474        C  0.56194055  0.57632515  0.62715322     1.02500
O475        O  0.55686157  0.57076449  0.65665222    -0.78000
O476        O  0.51677921  0.56670934  0.71531156    -0.78200
C477        C  0.52173830  0.61061132  0.71942855     1.02400
O478        O  0.41377824  0.52467840  0.72068928    -0.85500
O479        O  0.36009391  0.52591305  0.66851722    -0.82600
C480        C  0.34975878  0.53192816  0.64060161     0.98000
O481        O  0.38499422  0.55080145  0.61972313    -0.82600
O482        O  0.41855354  0.48084084  0.61361872    -0.85200
C483        C  0.43780151  0.45390153  0.62209041     1.02400
O484        O  0.47312688  0.47059226  0.64248379    -0.78000
O485        O  0.42705986  0.46753166  0.69874025    -0.78200
C486        C  0.40407995  0.47895947  0.71899909     1.02400
Cr487      Cr  0.42860179  0.57450478  0.68559936     1.93700
Cr488      Cr  0.45473677  0.55677295  0.61907927     1.93200
Cr489      Cr  0.49088505  0.52114168  0.67714025     1.39100
O490        O  0.45856556  0.55106656  0.66049441    -1.23300
O491        O  0.43630767  0.91821734  0.73484767    -0.85500
O492        O  0.37196059  0.86145300  0.68702554    -0.82600
C493        C  0.35486888  0.84670854  0.65972415     0.97900
O494        O  0.38553144  0.86102912  0.63617714    -0.82600
O495        O  0.42089178  0.96353634  0.62788476    -0.85200
C496        C  0.44089804  0.01002149  0.63538254     1.02500
O497        O  0.47877811  0.02995620  0.65406068    -0.78000
O498        O  0.44052007  0.98494795  0.71200589    -0.78200
C499        C  0.42129669  0.95029063  0.73304091     1.02400
O500        O  0.51312733  0.89973570  0.70880249    -0.85500
O501        O  0.44389751  0.83187135  0.66738705    -0.82600
C502        C  0.47358164  0.84107190  0.64410648     0.98000
O503        O  0.49089803  0.88249549  0.62868594    -0.82600
O504        O  0.52495058  0.98429328  0.61711480    -0.85200
C505        C  0.56608296  0.01095952  0.63256036     1.02400
O506        O  0.56462699  0.01454549  0.66211985    -0.78000
O507        O  0.53450074  0.97812050  0.72240939    -0.78200
C508        C  0.54322945  0.94102039  0.72247932     1.02400
Cr509      Cr  0.44309139  0.88169523  0.69767012     1.93700
Cr510      Cr  0.45646885  0.92379708  0.63047239     1.93200
Cr511      Cr  0.50201858  0.99747453  0.68675916     1.39100
O512        O  0.46758728  0.93462065  0.67131777    -1.23300
O513        O  0.11673354  0.50239200  0.70591114    -0.85500
O514        O  0.18016841  0.57531331  0.66318278    -0.82600
C515        C  0.17077841  0.54572386  0.64024941     0.97900
O516        O  0.12957456  0.52906892  0.62504365    -0.82600
O517        O  0.02699308  0.49392150  0.61552673    -0.85200
C518        C  0.00209582  0.45046647  0.62925215     1.02500
O519        O  0.00196033  0.44697834  0.65898734    -0.78000
O520        O  0.03670160  0.47452112  0.72037505    -0.78200
C521        C  0.07655676  0.47009898  0.72050910     1.02400
O522        O  0.09168685  0.57330551  0.73316261    -0.85500
O523        O  0.14648476  0.64247096  0.68533148    -0.82600
C524        C  0.16246316  0.66111891  0.65812032     0.98000
O525        O  0.14783663  0.63195010  0.63440719    -0.82600
O526        O  0.04242810  0.59295615  0.62933303    -0.85200
C527        C  0.99475430  0.56537503  0.63514952     1.02400
O528        O  0.97833120  0.52708887  0.65393373    -0.78000
O529        O  0.02109151  0.56299873  0.71238665    -0.78200
C530        C  0.05610566  0.58371881  0.73269452     1.02400
Cr531      Cr  0.12985592  0.57160154  0.69514023     1.93700
Cr532      Cr  0.08617022  0.56106454  0.62906477     1.93200
Cr533      Cr  0.01393077  0.50583052  0.68564090     1.39100
O534        O  0.07643132  0.54593493  0.66976723    -1.23300
O535        O  0.42381951  0.19112488  0.56620656    -0.85500
O536        O  0.47901417  0.18405381  0.51695454    -0.82600
C537        C  0.49432793  0.18304753  0.98948371     0.97900
O538        O  0.47971492  0.19934292  0.96630443    -0.82600
O539        O  0.37688532  0.12656444  0.96197034    -0.85200
C540        C  0.33017770  0.09982037  0.97022643     1.02500
O541        O  0.31031930  0.11834904  0.98835475    -0.78000
O542        O  0.35482326  0.12772169  0.54602751    -0.78200
C543        C  0.39048411  0.14389844  0.56599740     1.02400
O544        O  0.44113456  0.28596378  0.54043235    -0.85500
O545        O  0.50574040  0.28500487  0.49602964    -0.82600
C546        C  0.49339769  0.30573339  0.97450542     0.98000
O547        O  0.45290723  0.27929645  0.95894440    -0.82600
O548        O  0.35195642  0.20536708  0.94940086    -0.85200
C549        C  0.32629242  0.22108431  0.96442212     1.02400
O550        O  0.32481018  0.21954537  0.99415085    -0.78000
O551        O  0.36161285  0.22829001  0.55410768    -0.78200
C552        C  0.40004063  0.27391650  0.55498515     1.02400
Cr553      Cr  0.45859356  0.23428008  0.52808649     1.93700
Cr554      Cr  0.41469350  0.20275701  0.96208968     1.93200
Cr555      Cr  0.34223870  0.17539636  0.51968557     1.39100
O556        O  0.40483899  0.20426404  0.50313162    -1.23300
O557        O  0.83255316  0.28744941  0.53840690    -0.85500
O558        O  0.76170215  0.27987545  0.49549458    -0.82600
C559        C  0.79016142  0.30304428  0.97199767     0.97900
O560        O  0.81284607  0.28375042  0.95754544    -0.82600
O561        O  0.85105742  0.21859316  0.94635696    -0.85200
C562        C  0.89303997  0.23267122  0.96054711     1.02500
O563        O  0.89453201  0.23350344  0.99038210    -0.78000
O564        O  0.86079664  0.23539783  0.55152207    -0.78200
C565        C  0.86428267  0.27917751  0.55270948     1.02400
O566        O  0.76133817  0.18846555  0.56332965    -0.85500
O567        O  0.69535918  0.17581417  0.51449347    -0.82600
C568        C  0.67905535  0.17662931  0.98726157     0.98000
O569        O  0.71034396  0.19477291  0.96415867    -0.82600
O570        O  0.75142591  0.13175855  0.95721561    -0.85200
C571        C  0.77752774  0.11074319  0.96341768     1.02400
O572        O  0.81385629  0.13054074  0.98308373    -0.78000
O573        O  0.77248626  0.13057411  0.54078824    -0.78200
C574        C  0.75049777  0.14245996  0.56151755     1.02400
Cr575      Cr  0.76489379  0.23113557  0.52611596     1.93700
Cr576      Cr  0.78243368  0.20741010  0.95934830     1.93200
Cr577      Cr  0.83254443  0.18424008  0.51573808     1.39100
O578        O  0.79399327  0.20800615  0.50013439    -1.23300
O579        O  0.74322135  0.56651715  0.55868012    -0.85500
O580        O  0.68431613  0.51411449  0.50702138    -0.82600
C581        C  0.67153112  0.49879393  0.97913845     0.97900
O582        O  0.70569726  0.51370151  0.95765602    -0.82600
O583        O  0.74596842  0.61790147  0.95105322    -0.85200
C584        C  0.76688640  0.66411710  0.95954599     1.02500
O585        O  0.80348268  0.68176203  0.97920474    -0.78000
O586        O  0.76008539  0.63866022  0.53616884    -0.78200
C587        C  0.73644018  0.60436836  0.55690963     1.02400
O588        O  0.81853279  0.54199796  0.53955536    -0.85500
O589        O  0.75434394  0.47988332  0.49310087    -0.82600
C590        C  0.78503554  0.48678808  0.97075194     0.98000
O591        O  0.80878958  0.52966785  0.95651771    -0.82600
O592        O  0.84851859  0.63369723  0.94468724    -0.85200
C593        C  0.88816179  0.65832752  0.96157967     1.02400
O594        O  0.88409407  0.65906844  0.99108320    -0.78000
O595        O  0.84693612  0.62309753  0.55040749    -0.78200
C596        C  0.84891202  0.58224007  0.55427038     1.02400
Cr597      Cr  0.75256818  0.52988124  0.52263258     1.93700
Cr598      Cr  0.77794760  0.57471233  0.95565795     1.93200
Cr599      Cr  0.82086572  0.64596947  0.51310828     1.39100
O600        O  0.78426877  0.58376223  0.49700928    -1.23300
O601        O  0.76355021  0.85508070  0.89550024    -0.85500
O602        O  0.81662705  0.84070536  0.84784104    -0.82600
C603        C  0.83301455  0.83921669  0.82079425     0.97900
O604        O  0.82022644  0.85606603  0.79704652    -0.82600
O605        O  0.71465090  0.79399633  0.79104305    -0.85200
C606        C  0.66730336  0.77414018  0.79734723     1.02500
O607        O  0.65205140  0.79685004  0.81544562    -0.78000
O608        O  0.69266773  0.79736193  0.87367058    -0.78200
C609        C  0.72717000  0.80912798  0.89413834     1.02400
O610        O  0.79442503  0.95403242  0.87012733    -0.85500
O611        O  0.85678531  0.94419369  0.82687657    -0.82600
C612        C  0.85162450  0.96560741  0.80256996     0.98000
O613        O  0.80950743  0.94525650  0.78806012    -0.82600
O614        O  0.70563878  0.88265474  0.77784141    -0.85200
C615        C  0.68285603  0.90238797  0.79199767     1.02400
O616        O  0.68116682  0.90214921  0.82179294    -0.78000
O617        O  0.71291734  0.90276768  0.88280132    -0.78200
C618        C  0.75449031  0.94582743  0.88484732     1.02400
Cr619      Cr  0.80402163  0.89680590  0.85818354     1.93700
Cr620      Cr  0.76165108  0.86963662  0.79150631     1.93200
Cr621      Cr  0.68908960  0.85123303  0.84761147     1.39100
O622        O  0.75148252  0.87297982  0.83221360    -1.23300
O623        O  0.17226996  0.93657227  0.88333002    -0.85500
O624        O  0.11054677  0.94275180  0.83939572    -0.82600
C625        C  0.14542443  0.96879597  0.81930551     0.97900
O626        O  0.16291567  0.94720474  0.80214375    -0.82600
O627        O  0.19550563  0.87963532  0.78737746    -0.85200
C628        C  0.23522814  0.89160789  0.80370618     1.02500
O629        O  0.23144373  0.88298240  0.83308912    -0.78000
O630        O  0.19508244  0.87920414  0.89336357    -0.78200
C631        C  0.19958841  0.92294304  0.89806821     1.02400
O632        O  0.09426970  0.83722968  0.90183893    -0.85500
O633        O  0.03565531  0.83707548  0.85221288    -0.82600
C634        C  0.02240018  0.84185276  0.82486090     0.98000
O635        O  0.05618158  0.86296137  0.80314166    -0.82600
O636        O  0.09012484  0.79532505  0.79333554    -0.85200
C637        C  0.10810411  0.76695469  0.80075418     1.02400
O638        O  0.14540975  0.78274461  0.81976562    -0.78000
O639        O  0.10223569  0.77937633  0.87680569    -0.78200
C640        C  0.07997549  0.79074870  0.89760050     1.02400
Cr641      Cr  0.10509098  0.88658471  0.86715764     1.93700
Cr642      Cr  0.12675737  0.87072380  0.79939193     1.93200
Cr643      Cr  0.16626795  0.83326558  0.85492458     1.39100
O644        O  0.13348602  0.86394695  0.84027921    -1.23300
O645        O  0.05078631  0.21029296  0.86995076    -0.85500
O646        O  0.05700352  0.14583984  0.82715044    -0.82600
C647        C  0.03702821  0.15223704  0.80270837     0.97900
O648        O  0.05877939  0.19465074  0.78801547    -0.82600
O649        O  0.12584888  0.29857027  0.77704391    -0.85200
C650        C  0.10980868  0.32456437  0.79140063     1.02500
O651        O  0.10898005  0.32476199  0.82124190    -0.78000
O652        O  0.10594174  0.29006011  0.88277703    -0.78200
C653        C  0.06094976  0.25070744  0.88432035     1.02400
O654        O  0.14863238  0.23497759  0.89464453    -0.85500
O655        O  0.15911975  0.17981124  0.84671944    -0.82600
C656        C  0.15998050  0.16341414  0.81962209     0.98000
O657        O  0.14493301  0.17838612  0.79598772    -0.82600
O658        O  0.21101731  0.28328582  0.78895858    -0.85200
C659        C  0.23295226  0.33054694  0.79501486     1.02400
O660        O  0.21192468  0.34706286  0.81359507    -0.78000
O661        O  0.20884962  0.30432652  0.87141231    -0.78200
C662        C  0.19525384  0.26989362  0.89239412     1.02400
Cr663      Cr  0.10572813  0.19661119  0.85775585     1.93700
Cr664      Cr  0.13494790  0.23955269  0.79056174     1.93200
Cr665      Cr  0.15714914  0.31202909  0.84648276     1.39100
O666        O  0.13221863  0.24950918  0.83134275    -1.23300
C667        C  0.15975614  0.04599516  0.78828486    -0.21500
C668        C  0.16396809  0.02417548  0.81662505    -0.09500
C669        C  0.17769908  0.05346666  0.84417055     0.29300
C670        C  0.18191361  0.10163926  0.84407379    -0.21500
C671        C  0.17151750  0.12121617  0.81664052    -0.09500
C672        C  0.16347022  0.09431710  0.78819373     0.29300
F673        F  0.15519878  0.11257863  0.76082182    -0.20100
H674        H  0.14949935  0.02398664  0.76680893     0.17700
H675        H  0.18938864  0.12170983  0.86619522     0.17700
F676        F  0.18367594  0.03398615  0.87177207    -0.20000
C677        C  0.89623777  0.05972041  0.79076016    -0.21500
C678        C  0.89678394  0.01344123  0.79141046    -0.09500
C679        C  0.94381590  0.01465632  0.78851475     0.29300
C680        C  0.98993855  0.06145951  0.78842104    -0.21500
C681        C  0.98981671  0.10761043  0.79131419    -0.09500
C682        C  0.94286196  0.10697510  0.79077219     0.29300
F683        F  0.94205796  0.15126715  0.79401743    -0.20100
H684        H  0.86020703  0.05922755  0.79337891     0.17700
H685        H  0.02595192  0.06147264  0.78888519     0.17700
F686        F  0.94524950  0.97037228  0.78883948    -0.20000
C687        C  0.90743183  0.84454304  0.79183830    -0.21500
C688        C  0.87340912  0.82545879  0.81775539    -0.09500
C689        C  0.88460789  0.80229071  0.84307910     0.29300
C690        C  0.93161582  0.80361744  0.84385857    -0.21500
C691        C  0.96837615  0.82832143  0.81961069    -0.09500
C692        C  0.95469334  0.84637301  0.79275142     0.29300
F693        F  0.98861109  0.87009226  0.76861326    -0.20100
H694        H  0.89964011  0.86233569  0.77194739     0.17700
H695        H  0.94058882  0.78831672  0.86454409     0.17700
F696        F  0.85190289  0.78166444  0.86812431    -0.20000
C697        C  0.77297551  0.74998333  0.95570449    -0.21500
C698        C  0.75019881  0.69886795  0.94554214    -0.09500
C699        C  0.71339110  0.68267291  0.92122856     0.29300
C700        C  0.70288488  0.71791147  0.90609126    -0.21500
C701        C  0.72861274  0.76983806  0.91484028    -0.09500
C702        C  0.76237589  0.78502794  0.94068781     0.29300
F703        F  0.78689660  0.83439167  0.95077219    -0.20100
H704        H  0.80048981  0.76352896  0.97476402     0.17700
H705        H  0.67676517  0.70511056  0.88630443     0.17700
F706        F  0.68912526  0.63342546  0.91101686    -0.20000
C707        C  0.02592474  0.76368978  0.94599225    -0.21500
C708        C  0.03529728  0.75134663  0.91586300    -0.09500
C709        C  0.99707529  0.70611328  0.90157726     0.29300
C710        C  0.94950336  0.67518785  0.91680789    -0.21500
C711        C  0.93965116  0.68857533  0.94657959    -0.09500
C712        C  0.97880699  0.73274192  0.96128596     0.29300
F713        F  0.97046900  0.74810278  0.98953039    -0.20100
H714        H  0.05446949  0.79882256  0.95718727     0.17700
H715        H  0.91989964  0.64140890  0.90500096     0.17700
F716        F  0.00411844  0.69394635  0.87199842    -0.20000
C717        C  0.92945703  0.22251061  0.91048274    -0.21500
C718        C  0.93842229  0.24263333  0.94111587    -0.09500
C719        C  0.98928138  0.26802016  0.95255412     0.29300
C720        C  0.02987100  0.27272246  0.93354851    -0.21500
C721        C  0.01996759  0.25085315  0.90340422    -0.09500
C722        C  0.96939709  0.22602859  0.89202426     0.29300
F723        F  0.95844922  0.20489516  0.86292602    -0.20100
H724        H  0.89085131  0.20222039  0.90095719     0.17700
H725        H  0.06866430  0.29169545  0.94279934     0.17700
F726        F  0.99969750  0.28765362  0.98201749    -0.20000
C727        C  0.72186463  0.03290592  0.93097098    -0.21500
C728        C  0.76929946  0.06549192  0.94551384    -0.09500
C729        C  0.81075386  0.05715036  0.94056471     0.29300
C730        C  0.80511912  0.01805081  0.92089557    -0.21500
C731        C  0.75803918  0.98577917  0.90612202    -0.09500
C732        C  0.71598416  0.99286316  0.91167449     0.29300
F733        F  0.67003929  0.96258732  0.89748034    -0.20100
H734        H  0.68955734  0.03881901  0.93427108     0.17700
H735        H  0.83794773  0.01309401  0.91712366     0.17700
F736        F  0.85767174  0.08824309  0.95349911    -0.20000
C737        C  0.83695770  0.44431163  0.96085448    -0.21500
C738        C  0.78926412  0.44229585  0.96118400    -0.09500
C739        C  0.74360380  0.39449089  0.95852858     0.29300
C740        C  0.74524907  0.34926482  0.95856651    -0.21500
C741        C  0.79230526  0.35064941  0.96134406    -0.09500
C742        C  0.83854472  0.39846761  0.96100740     0.29300
F743        F  0.88450132  0.40075127  0.96417454    -0.20100
H744        H  0.87244394  0.48082075  0.96326487     0.17700
H745        H  0.70924800  0.31274088  0.95889396     0.17700
F746        F  0.69694652  0.39131920  0.95849742    -0.18200
C747        C  0.27727957  0.27049550  0.89843421    -0.21500
C748        C  0.23331157  0.26676592  0.91249854    -0.09500
C749        C  0.22199353  0.25126505  0.94424812     0.29300
C750        C  0.25366908  0.23855115  0.96140888    -0.21500
C751        C  0.29615024  0.23947848  0.94688533    -0.09500
C752        C  0.30812616  0.25633162  0.91526112     0.29300
F753        F  0.34889728  0.25806294  0.90030827    -0.20100
H754        H  0.28593233  0.28131601  0.87380097     0.17700
H755        H  0.24361858  0.22582263  0.98567129     0.17700
F756        F  0.17949672  0.24704335  0.95838664    -0.20000
C757        C  0.31889208  0.02524827  0.93791073    -0.21500
C758        C  0.29725114  0.04790379  0.95675156    -0.09500
C759        C  0.24321818  0.02252564  0.96009676     0.29300
C760        C  0.21198145  0.97845249  0.94293236    -0.21500
C761        C  0.23347279  0.95832748  0.92226984    -0.09500
C762        C  0.28718128  0.98058662  0.92077846     0.29300
F763        F  0.30888395  0.96204906  0.90074183    -0.20100
H764        H  0.36032039  0.04354522  0.93514681     0.17700
H765        H  0.17051601  0.96178341  0.94420323     0.17700
F766        F  0.22006827  0.04217112  0.97802403    -0.20000
C767        C  0.60794276  0.42709006  0.94560218    -0.21500
C768        C  0.61798958  0.45762439  0.97254787    -0.09500
C769        C  0.57898006  0.44216882  0.99557753     0.29300
C770        C  0.53420076  0.39407943  0.99368899    -0.21500
C771        C  0.52749910  0.36097661  0.96888208    -0.09500
C772        C  0.56300506  0.37877887  0.94384584     0.29300
F773        F  0.55729533  0.34723238  0.91968203    -0.20100
H774        H  0.63699600  0.43817036  0.92734397     0.17700
H775        H  0.50689983  0.38077068  0.01314310     0.17700
F776        F  0.58595905  0.47119077  0.02137166    -0.20000
C777        C  0.59070046  0.14253467  0.00912408    -0.21500
C778        C  0.62507670  0.16401681  0.98351801    -0.09500
C779        C  0.61023337  0.18193210  0.95703166     0.29300
C780        C  0.56491447  0.18398782  0.95800299    -0.21500
C781        C  0.53375663  0.16818122  0.98522427    -0.09500
C782        C  0.54543556  0.14449334  0.01005369     0.29300
F783        F  0.51498510  0.12628281  0.53619497    -0.20100
H784        H  0.60056455  0.12742500  0.52952864     0.17700
H785        H  0.55639854  0.20165503  0.93834830     0.17700
F786        F  0.64159273  0.20194936  0.93138250    -0.20000
C787        C  0.93405395  0.62385338  0.58264900    -0.21500
C788        C  0.88548472  0.58026992  0.57691422    -0.09500
C789        C  0.87252568  0.53358034  0.59224932     0.29300
C790        C  0.90748518  0.53037605  0.61229571    -0.21500
C791        C  0.95682333  0.57313712  0.61716956    -0.09500
C792        C  0.96979919  0.62026519  0.60226490     0.29300
F793        F  0.01700370  0.66257949  0.60634890    -0.20100
H794        H  0.94498615  0.66021171  0.57108983     0.17700
H795        H  0.89644776  0.49343338  0.62306402     0.17700
F796        F  0.82592321  0.49060779  0.58779714    -0.20000
C797        C  0.91482486  0.31242916  0.60241293    -0.21500
C798        C  0.90411481  0.32113611  0.57151698    -0.09500
C799        C  0.92787414  0.37163362  0.55950568     0.29300
C800        C  0.96085805  0.41277209  0.57823502    -0.21500
C801        C  0.97033409  0.40482328  0.60963554    -0.09500
C802        C  0.94730930  0.35404410  0.62157606     0.29300
F803        F  0.95528094  0.34464265  0.65176429    -0.20100
H804        H  0.89621876  0.27368073  0.61213059     0.17700
H805        H  0.97768043  0.45124587  0.56826582     0.17700
F806        F  0.91849223  0.38131248  0.52966471    -0.20000
C807        C  0.03871483  0.65426792  0.74498467    -0.21500
C808        C  0.05898224  0.62330271  0.75425582    -0.09500
C809        C  0.08966539  0.63645837  0.78141954     0.29300
C810        C  0.10352100  0.68206208  0.79714995    -0.21500
C811        C  0.08704456  0.71551155  0.78628143    -0.09500
C812        C  0.05248551  0.69996245  0.76079226     0.29300
F813        F  0.03424718  0.73012136  0.74990157    -0.20100
H814        H  0.01497949  0.64497649  0.72416935     0.17700
H815        H  0.12879434  0.69204020  0.81726076     0.17700
F816        F  0.10820931  0.60637542  0.79201411    -0.20000
C817        C  0.09778387  0.40078962  0.72327425    -0.21500
C818        C  0.07787637  0.42827938  0.73821420    -0.09500
C819        C  0.06526901  0.41922833  0.77044707     0.29300
C820        C  0.07423851  0.38437498  0.78756027    -0.21500
C821        C  0.09548903  0.35764234  0.77274501    -0.09500
C822        C  0.10627647  0.36573481  0.74009268     0.29300
F823        F  0.12706363  0.34148780  0.72441152    -0.20100
H824        H  0.10764445  0.40716730  0.69845139     0.17700
H825        H  0.06576848  0.37931944  0.81259276     0.17700
F826        F  0.04731755  0.44632554  0.78575808    -0.20000
C827        C  0.36905655  0.05502964  0.58231434    -0.21500
C828        C  0.39603671  0.10821042  0.58781367    -0.09500
C829        C  0.43343788  0.12748164  0.61174186     0.29300
C830        C  0.44605358  0.09488050  0.62796258    -0.21500
C831        C  0.42176884  0.04231375  0.62093166    -0.09500
C832        C  0.38156893  0.02227838  0.59867489     0.29300
F833        F  0.35564490  0.97146615  0.59167125    -0.20100
H834        H  0.33993784  0.03901859  0.56417810     0.17700
H835        H  0.47638579  0.11140355  0.64533657     0.17700
F836        F  0.45950242  0.17830498  0.61872771    -0.20000
C837        C  0.65711534  0.08416051  0.62967561    -0.21500
C838        C  0.61637118  0.04028057  0.61574043    -0.09500
C839        C  0.62390861  0.02637546  0.58544143     0.29300
C840        C  0.67013161  0.05752831  0.56889062    -0.21500
C841        C  0.70911211  0.10338713  0.58201315    -0.09500
C842        C  0.70277627  0.11572322  0.61290416     0.29300
F843        F  0.74000253  0.15947143  0.62642388    -0.20100
H844        H  0.65273214  0.09552663  0.65303885     0.17700
H845        H  0.67402043  0.04761125  0.54501874     0.17700
F846        F  0.58625084  0.98344204  0.57146048    -0.20000
C847        C  0.34371141  0.95825253  0.74320207    -0.21500
C848        C  0.37893984  0.94409533  0.75404495    -0.09500
C849        C  0.36883851  0.91729309  0.78301375     0.29300
C850        C  0.32322979  0.90265059  0.79979560    -0.21500
C851        C  0.28624774  0.91347339  0.78780635    -0.09500
C852        C  0.29758599  0.94276345  0.75972745     0.29300
F853        F  0.26371143  0.95566931  0.74792919    -0.20100
H854        H  0.35044572  0.97877667  0.72099600     0.17700
H855        H  0.31572685  0.88059549  0.82144965     0.17700
F856        F  0.40228734  0.90372009  0.79467220    -0.20000
C857        C  0.62993421  0.94537724  0.78796331    -0.21500
C858        C  0.65475795  0.92208407  0.77317316    -0.09500
C859        C  0.64860063  0.91369057  0.74041578     0.29300
C860        C  0.61488138  0.92389097  0.72377080    -0.21500
C861        C  0.58731393  0.94351216  0.73901991    -0.09500
C862        C  0.59662186  0.95635632  0.77095835     0.29300
F863        F  0.57030504  0.97528142  0.78626270    -0.20100
H864        H  0.63441085  0.95291257  0.81299136     0.17700
H865        H  0.60830087  0.91402123  0.69906019     0.17700
F866        F  0.67244027  0.89255378  0.72460643    -0.20000
C867        C  0.21772386  0.74778813  0.68106549    -0.21500
C868        C  0.20373316  0.71564091  0.65478193    -0.09500
C869        C  0.23522859  0.73341494  0.62755846     0.29300
C870        C  0.28284084  0.77913537  0.62831687    -0.21500
C871        C  0.29969651  0.80780195  0.65606484    -0.09500
C872        C  0.26518140  0.79353150  0.68178332     0.29300
F873        F  0.27861599  0.82163119  0.70853231    -0.20100
H874        H  0.19356933  0.73577159  0.70203568     0.17700
H875        H  0.30817108  0.78978196  0.60795469     0.17700
F876        F  0.22262084  0.70448751  0.60120806    -0.20000
C877        C  0.67046966  0.62890338  0.56742506    -0.21500
C878        C  0.69867257  0.60636474  0.57816467    -0.09500
C879        C  0.68556919  0.58008963  0.60740880     0.29300
C880        C  0.64302263  0.57384085  0.62450938    -0.21500
C881        C  0.61229205  0.59260446  0.61238974    -0.09500
C882        C  0.62720374  0.62159727  0.58419566     0.29300
F883        F  0.59890340  0.64130616  0.57231994    -0.20100
H884        H  0.67984893  0.64929782  0.54502938     0.17700
H885        H  0.63216619  0.55143353  0.64620009     0.17700
F886        F  0.71253843  0.55862272  0.61886986    -0.20000
C887        C  0.42943109  0.32741386  0.60231904    -0.21500
C888        C  0.39983162  0.31326171  0.57493670    -0.09500
C889        C  0.37917682  0.34318687  0.56421766     0.29300
C890        C  0.38963707  0.38783301  0.58036137    -0.21500
C891        C  0.42134086  0.40346266  0.60717737    -0.09500
C892        C  0.43996156  0.37173222  0.61844370     0.29300
F893        F  0.47006177  0.38427888  0.64440782    -0.20100
H894        H  0.44635112  0.30513882  0.61050028     0.17700
H895        H  0.37480153  0.41131485  0.57107039     0.17700
F896        F  0.35173108  0.33104512  0.53713571    -0.20000
C897        C  0.54174940  0.67374227  0.76148642    -0.21500
C898        C  0.55765397  0.64612702  0.74294737    -0.09500
C899        C  0.60863492  0.65659614  0.74516797     0.29300
C900        C  0.64406305  0.69700811  0.76402496    -0.21500
C901        C  0.62871040  0.72658522  0.78138333    -0.09500
C902        C  0.57648708  0.71309343  0.78078714     0.29300
F903        F  0.55926269  0.73975089  0.79733484    -0.20100
H904        H  0.50237614  0.66573006  0.76032064     0.17700
H905        H  0.68385756  0.70626274  0.76420782     0.17700
F906        F  0.62498786  0.63026799  0.72752632    -0.20000
C907        C  0.34254956  0.45637107  0.76345531    -0.21500
C908        C  0.36504925  0.44002341  0.74082432    -0.09500
C909        C  0.34674669  0.38702159  0.73812478     0.29300
C910        C  0.30515726  0.35133355  0.75685853    -0.21500
C911        C  0.28121670  0.36792561  0.77844191    -0.09500
C912        C  0.30120424  0.42111123  0.78190360     0.29300
F913        F  0.27944725  0.43954147  0.80200669    -0.20100
H914        H  0.35572031  0.49682709  0.76625760     0.17700
H915        H  0.29060944  0.31068117  0.75368775     0.17700
F916        F  0.36744348  0.36949615  0.71663672    -0.20000
C917        C  0.45776435  0.72048269  0.60887984    -0.21500
C918        C  0.48647113  0.70915933  0.63009221    -0.09500
C919        C  0.51805817  0.74616549  0.65211288     0.29300
C920        C  0.51744500  0.79201324  0.65464712    -0.21500
C921        C  0.48576220  0.80161591  0.63502515    -0.09500
C922        C  0.45757969  0.76669098  0.61120208     0.29300
F923        F  0.42577520  0.77476890  0.59248321    -0.20100
H924        H  0.43201294  0.69167476  0.59245466     0.17700
H925        H  0.53874845  0.81828007  0.67342085     0.17700
F926        F  0.54532808  0.73559523  0.67326761    -0.20000
C927        C  0.21081778  0.49386470  0.65144215    -0.21500
C928        C  0.20882588  0.53107863  0.63244087    -0.09500
C929        C  0.25011743  0.56218319  0.61214144     0.29300
C930        C  0.29442872  0.55825551  0.61243875    -0.21500
C931        C  0.29839106  0.52425388  0.63363563    -0.09500
C932        C  0.25528108  0.49035657  0.65213629     0.29300
F933        F  0.25743966  0.45648566  0.67251009    -0.20100
H934        H  0.17951366  0.47036018  0.66760197     0.17700
H935        H  0.32737523  0.58523386  0.59829201     0.17700
F936        F  0.24961601  0.59971549  0.59447673    -0.20000
loop_ 
_geom_bond_atom_site_label_1 
_geom_bond_atom_site_label_2 
_geom_bond_distance 
_geom_bond_site_symmetry_2 
_ccdc_geom_bond_type 
O1          Cr19   1.958       .  S
O1            C9   1.259       .  A
O2          Cr19   1.992       .  S
O2            C3   1.261       .  A
C3            O4   1.262       .  A
C3          C450   1.466       .  S
O4          Cr20   1.995       .  S
O5          Cr20   2.001       .  S
O5            C6   1.266       .  A
C6            O7   1.260       .  A
C6          C413   1.471       .  S
O7          Cr21   1.972       .  S
O8          Cr21   2.021       .  S
O8            C9   1.269       .  A
C9          C430   1.471       .  S
O10         Cr19   1.986       .  S
O10          C18   1.259       .  A
O11         Cr19   1.971       .  S
O11          C12   1.260       .  A
C12          O13   1.267       .  A
C12         C463   1.474       .  S
O13         Cr20   2.014       .  S
O14         Cr20   1.991       .  S
O14          C15   1.264       .  A
C15          O16   1.266       .  A
C15         C423   1.489       .  S
O16         Cr21   1.999       .  S
O17         Cr21   1.988       .  S
O17          C18   1.258       .  A
C18         C440   1.479       .  S
Cr19         O22   1.763       .  S
Cr20         O22   1.774       .  S
Cr21         O22   1.772       .  S
O23         Cr41   2.002       .  S
O23          C31   1.261       .  A
O24         Cr41   1.961       .  S
O24          C25   1.259       .  A
C25          O26   1.272       .  A
C25         C403   1.478       .  S
O26         Cr42   2.021       .  S
O27         Cr42   1.974       .  S
O27          C28   1.258   1_565  A
C28          O29   1.268       .  A
C28         C363   1.488       .  S
O29         Cr43   2.011   1_545  S
O30         Cr43   1.998       .  S
O30          C31   1.260       .  A
C31         C380   1.485       .  S
O32         Cr41   1.952       .  S
O32          C40   1.257       .  A
O33         Cr41   1.998       .  S
O33          C34   1.261       .  A
C34          O35   1.257       .  A
C34         C453   1.467       .  S
O35         Cr42   1.986       .  S
O36         Cr42   2.013       .  S
O36          C37   1.270   1_565  A
C37          O38   1.263       .  A
C37         C370   1.485       .  S
O38         Cr43   1.976   1_545  S
O39         Cr43   2.038       .  S
O39          C40   1.273       .  A
C40         C393   1.471       .  S
Cr41         O44   1.762       .  S
Cr42         O44   1.768       .  S
Cr43         O44   1.770       .  S
O45         Cr63   1.966       .  S
O45          C53   1.258       .  A
O46         Cr63   1.991       .  S
O46          C47   1.260       .  A
C47          O48   1.259       .  A
C47         C460   1.460       .  S
O48         Cr64   1.988       .  S
O49         Cr64   1.993       .  S
O49          C50   1.266       .  A
C50          O51   1.265       .  A
C50         C333   1.481   1_455  S
O51         Cr65   1.989       .  S
O52         Cr65   2.041       .  S
O52          C53   1.273       .  A
C53         C350   1.479       .  S
O54         Cr63   1.995       .  S
O54          C62   1.260       .  A
O55         Cr63   1.972       .  S
O55          C56   1.261       .  A
C56          O57   1.268       .  A
C56         C400   1.479       .  S
O57         Cr64   2.013       .  S
O58         Cr64   1.987       .  S
O58          C59   1.263   1_455  A
C59          O60   1.270       .  A
C59         C323   1.487       .  S
O60         Cr65   2.014   1_655  S
O61         Cr65   1.994       .  S
O61          C62   1.261       .  A
C62         C340   1.480       .  S
Cr63         O66   1.762       .  S
Cr64         O66   1.767       .  S
Cr65         O66   1.767       .  S
O67         Cr85   1.993       .  S
O67          C75   1.259       .  A
O68         Cr85   1.964       .  S
O68         C537   1.259   1_554  A
C69          O70   1.270       .  A
C69         O536   1.259       .  A
C69         C313   1.478       .  S
O70         Cr86   2.020       .  S
O71         Cr86   1.980       .  S
O71          C72   1.261       .  A
C72          O73   1.268       .  A
C72         C290   1.486       .  S
O73        Cr555   2.007       .  S
O74         Cr87   1.995       .  S
O74          C75   1.261       .  A
C75         C360   1.485       .  S
O76         Cr85   1.957       .  S
O76          C84   1.257       .  A
O77         Cr85   1.987   1_556  S
O77         C546   1.260       .  A
C78          O79   1.259       .  A
C78         O545   1.260       .  A
C78         C303   1.463       .  S
O79         Cr86   1.992       .  S
O80         Cr86   2.004       .  S
O80          C81   1.267       .  A
C81          O82   1.262       .  A
C81         C283   1.480       .  S
O82        Cr555   1.976       .  S
O83         Cr87   2.032       .  S
O83          C84   1.272       .  A
C84         C420   1.468       .  S
Cr85         O88   1.760       .  S
Cr86        O556   1.771       .  S
Cr87        O541   2.007   1_554  S
Cr87        O550   1.976   1_554  S
Cr87         O88   1.766       .  S
O88        Cr554   1.771   1_554  S
O89        Cr107   1.953       .  S
O89          C97   1.259       .  A
O90        Cr107   1.990   1_556  S
O90         C559   1.261       .  A
C91          O92   1.261       .  A
C91         O558   1.261       .  A
C91         C273   1.471       .  S
O92        Cr108   2.000       .  S
O93        Cr108   1.992       .  S
O93          C94   1.266       .  A
C94          O95   1.267       .  A
C94         C250   1.487       .  S
O95        Cr577   1.998       .  S
O96        Cr109   2.033       .  S
O96          C97   1.272       .  A
C97         C330   1.470       .  S
O98        Cr107   1.994       .  S
O98         C106   1.257       .  A
O99        Cr107   1.971       .  S
O99         C568   1.261   1_554  A
C100        O101   1.269       .  A
C100        O567   1.261       .  A
C100        C310   1.478       .  S
O101       Cr108   2.013       .  S
O102       Cr108   1.982       .  S
O102        C103   1.262       .  A
C103        O104   1.265       .  A
C103        C260   1.477       .  S
O104       Cr577   1.997       .  S
O105       Cr109   2.000       .  S
O105        C106   1.260       .  A
C106        C373   1.476       .  S
Cr107       O110   1.762       .  S
Cr108       O578   1.765       .  S
Cr109       O563   1.998   1_554  S
Cr109       O572   1.997   1_554  S
Cr109       O110   1.771       .  S
O110       Cr576   1.765   1_554  S
O111       Cr129   1.998       .  S
O111        C119   1.259       .  A
O112       Cr129   1.976       .  S
O112        C581   1.263   1_554  A
C113        O114   1.268       .  A
C113        O580   1.263       .  A
C113        C300   1.481       .  S
O114       Cr130   2.014       .  S
O115       Cr130   1.983       .  S
O115        C116   1.261       .  A
C116        O117   1.269       .  A
C116        C230   1.492       .  S
O117       Cr599   2.013       .  S
O118       Cr131   1.983       .  S
O118        C119   1.257       .  A
C119        C410   1.475       .  S
O120       Cr129   1.966       .  S
O120        C128   1.261       .  A
O121       Cr129   1.993   1_556  S
O121        C590   1.262       .  A
C122        O123   1.261       .  A
C122        O589   1.262       .  A
C122        C270   1.472       .  S
O123       Cr130   1.998       .  S
O124       Cr130   2.009       .  S
O124        C125   1.267       .  A
C125        O126   1.259       .  A
C125        C243   1.479       .  S
O126       Cr599   1.968       .  S
O127       Cr131   2.032       .  S
O127        C128   1.273       .  A
C128        C320   1.486       .  S
Cr129       O132   1.765   1_554  S
Cr130       O600   1.774       .  S
Cr131       O585   2.013   1_554  S
Cr131       O594   1.968   1_554  S
Cr131       O132   1.770   1_554  S
O132       Cr598   1.774       .  S
O133       Cr151   1.992       .  S
O133        C141   1.259       .  A
O134       Cr151   1.967       .  S
O134        C135   1.259       .  A
C135        O136   1.269       .  A
C135        C220   1.477       .  S
O136       Cr152   2.016       .  S
O137       Cr152   1.983       .  S
O137        C138   1.261       .  A
C138        O139   1.265       .  A
C138        C433   1.483       .  S
O139       Cr153   1.999       .  S
O140       Cr153   2.004       .  S
O140        C141   1.263       .  A
C141        C233   1.486       .  S
O142       Cr151   1.961       .  S
O142        C150   1.260       .  A
O143       Cr151   1.994       .  S
O143        C144   1.262       .  A
C144        O145   1.259       .  A
C144        C210   1.464   1_565  S
O145       Cr152   1.989       .  S
O146       Cr152   2.001       .  S
O146        C147   1.268       .  A
C147        O148   1.265       .  A
C147        C390   1.486       .  S
O148       Cr153   1.988       .  S
O149       Cr153   2.021       .  S
O149        C150   1.270       .  A
C150        C263   1.474       .  S
Cr151       O154   1.761       .  S
Cr152       O154   1.767       .  S
Cr153       O154   1.766       .  S
O155       Cr173   1.940       .  S
O155        C163   1.256       .  A
O156       Cr173   1.990       .  S
O156        C157   1.261       .  A
C157        O158   1.261       .  A
C157        C200   1.471   1_565  S
O158       Cr174   1.994       .  S
O159       Cr174   2.011       .  S
O159        C160   1.269       .  A
C160        O161   1.264       .  A
C160        C383   1.486       .  S
O161       Cr175   1.983       .  S
O162       Cr175   2.041       .  S
O162        C163   1.274       .  A
C163        C293   1.469       .  S
O164       Cr173   1.986       .  S
O164        C172   1.256       .  A
O165       Cr173   1.964       .  S
O165        C166   1.258       .  A
C166        O167   1.271       .  A
C166        C223   1.480   1_455  S
O167       Cr174   2.022       .  S
O168       Cr174   1.980       .  S
O168        C169   1.261       .  A
C169        O170   1.268       .  A
C169        C343   1.487       .  S
O170       Cr175   2.006       .  S
O171       Cr175   2.000       .  S
O171        C172   1.258       .  A
C172        C240   1.475       .  S
Cr173       O176   1.762       .  S
Cr174       O176   1.769       .  S
Cr175       O176   1.770       .  S
O177       Cr195   1.967       .  S
O177        C185   1.261       .  A
O178       Cr195   1.988       .  S
O178        C179   1.261       .  A
C179        O180   1.259       .  A
C179        C213   1.463   1_455  S
O180       Cr196   1.988       .  S
O181       Cr196   2.012       .  S
O181        C182   1.270       .  A
C182        O183   1.267       .  A
C182        C353   1.493       .  S
O183       Cr197   1.990       .  S
O184       Cr197   2.030       .  S
O184        C185   1.270       .  A
C185        C253   1.476       .  S
O186       Cr195   1.997       .  S
O186        C194   1.259       .  A
O187       Cr195   1.972       .  S
O187        C188   1.262       .  A
C188        O189   1.271       .  A
C188        C203   1.486       .  S
O189       Cr196   2.025       .  S
O190       Cr196   1.979       .  S
O190        C191   1.260       .  A
C191        O192   1.264       .  A
C191        C443   1.481       .  S
O192       Cr197   1.993       .  S
O193       Cr197   1.991       .  S
O193        C194   1.259       .  A
C194        C280   1.470       .  S
Cr195       O198   1.762       .  S
Cr196       O198   1.768       .  S
Cr197       O198   1.767       .  S
C199        C200   1.401       .  A
C199        C204   1.404       .  A
C199        H206   1.083       .  S
C200        C201   1.404       .  A
C201        C202   1.393       .  A
C201        F208   1.357       .  S
C202        C203   1.406       .  A
C202        H207   1.083       .  S
C203        C204   1.413       .  A
C204        F205   1.357       .  S
C209        C210   1.404       .  A
C209        C214   1.404       .  A
C209        H216   1.083       .  S
C210        C211   1.403       .  A
C211        C212   1.389       .  A
C211        F218   1.358   1_545  S
C212        C213   1.401       .  A
C212        H217   1.084   1_655  S
C213        C214   1.404       .  A
C214        F215   1.357       .  S
C219        C220   1.405       .  A
C219        C224   1.396       .  A
C219        H226   1.084       .  S
C220        C221   1.408       .  A
C221        C222   1.396       .  A
C221        F228   1.358       .  S
C222        C223   1.407       .  A
C222        H227   1.084       .  S
C223        C224   1.408       .  A
C224        F225   1.357       .  S
C229        C230   1.406       .  A
C229        C234   1.398       .  A
C229        H236   1.083       .  S
C230        C231   1.413       .  A
C231        C232   1.404       .  A
C231        F238   1.357       .  S
C232        C233   1.405       .  A
C232        H237   1.083       .  S
C233        C234   1.410       .  A
C234        F235   1.358       .  S
C239        C240   1.403       .  A
C239        C244   1.394   1_455  A
C239        H246   1.084       .  S
C240        C241   1.407   1_455  A
C241        C242   1.402       .  A
C241        F248   1.358   1_655  S
C242        C243   1.407       .  A
C242        H247   1.084       .  S
C243        C244   1.407       .  A
C244        F245   1.358       .  S
C249        C250   1.408       .  A
C249        C254   1.391       .  A
C249        H256   1.083       .  S
C250        C251   1.409       .  A
C251        C252   1.408   1_655  A
C251        F258   1.357       .  S
C252        C253   1.407       .  A
C252        H257   1.083       .  S
C253        C254   1.402   1_455  A
C254        F255   1.358       .  S
C259        C260   1.406       .  A
C259        C264   1.402   1_545  A
C259        H266   1.083       .  S
C260        C261   1.409       .  A
C261        C262   1.391       .  A
C261        F268   1.358       .  S
C262        C263   1.402   1_545  A
C262        H267   1.084       .  S
C263        C264   1.407       .  A
C264        F265   1.357       .  S
C269        C270   1.406       .  A
C269        C274   1.408       .  A
C269        H276   1.083       .  S
C270        C271   1.404       .  A
C271        C272   1.390       .  A
C271        F278   1.359       .  S
C272        C273   1.401       .  A
C272        H277   1.084       .  S
C273        C274   1.407       .  A
C274        F275   1.357       .  S
C279        C280   1.402       .  A
C279        C284   1.398       .  A
C279        H286   1.083       .  S
C280        C281   1.404       .  A
C281        C282   1.398       .  A
C281        F288   1.358       .  S
C282        C283   1.406       .  A
C282        H287   1.082       .  S
C283        C284   1.409       .  A
C284        F285   1.358       .  S
C289        C290   1.412       .  A
C289        C294   1.404   1_545  A
C289        H296   1.083       .  S
C290        C291   1.409       .  A
C291        C292   1.391   1_545  A
C291        F298   1.358       .  S
C292        C293   1.402       .  A
C292        H297   1.084       .  S
C293        C294   1.402       .  A
C294        F295   1.357       .  S
C299        C300   1.410       .  A
C299        C304   1.400       .  A
C299        H306   1.083       .  S
C300        C301   1.408       .  A
C301        C302   1.395       .  A
C301        F308   1.358       .  S
C302        C303   1.402       .  A
C302        H307   1.083       .  S
C303        C304   1.400       .  A
C304        F305   1.357       .  S
C309        C310   1.404       .  A
C309        C314   1.394       .  A
C309        H784   1.084       .  S
C310        C311   1.410       .  A
C311        C312   1.397       .  A
C311        F318   1.358       .  S
C312        C313   1.404       .  A
C312        H317   1.084       .  S
C313        C314   1.409       .  A
C314        F783   1.358       .  S
F315        C782   1.358       .  S
H316        C777   1.084       .  S
C319        C320   1.408       .  A
C319        C324   1.408       .  A
C319        H326   1.083       .  S
C320        C321   1.407       .  A
C321        C322   1.395       .  A
C321        F328   1.358       .  S
C322        C323   1.405       .  A
C322        H327   1.083       .  S
C323        C324   1.410       .  A
C324        F325   1.357   1_655  S
C329        C330   1.404       .  A
C329        C334   1.404       .  A
C329        H336   1.083       .  S
C330        C331   1.402       .  A
C331        C332   1.389       .  A
C331        F338   1.358       .  S
C332        C333   1.406       .  A
C332        H337   1.083       .  S
C333        C334   1.410       .  A
C334        F335   1.357       .  S
C339        C340   1.404       .  A
C339        C344   1.401       .  A
C339        H346   1.083       .  S
C340        C341   1.407       .  A
C341        C342   1.397       .  A
C341        F348   1.358       .  S
C342        C343   1.406       .  A
C342        H347   1.083       .  S
C343        C344   1.411       .  A
C344        F345   1.357       .  S
C349        C350   1.401       .  A
C349        C354   1.397       .  A
C349        H356   1.082       .  S
C350        C351   1.405       .  A
C351        C352   1.406       .  A
C351        F358   1.357       .  S
C352        C353   1.410       .  A
C352        H357   1.083       .  S
C353        C354   1.413       .  A
C354        F355   1.358       .  S
C359        C360   1.405       .  A
C359        C364   1.401       .  A
C359        H366   1.084       .  S
C360        C361   1.410       .  A
C361        C362   1.397       .  A
C361        F368   1.358       .  S
C362        C363   1.404       .  A
C362        H367   1.084       .  S
C363        C364   1.413       .  A
C364        F365   1.357   1_545  S
C369        C370   1.406       .  A
C369        C374   1.398       .  A
C369        H376   1.082       .  S
C370        C371   1.410       .  A
C371        C372   1.402       .  A
C371        F378   1.357   1_545  S
C372        C373   1.404       .  A
C372        H377   1.082       .  S
C373        C374   1.405       .  A
C374        F375   1.358       .  S
C379        C380   1.406       .  A
C379        C384   1.403       .  A
C379        H386   1.082       .  S
C380        C381   1.409       .  A
C381        C382   1.400       .  A
C381        F388   1.357       .  S
C382        C383   1.405       .  A
C382        H387   1.082       .  S
C383        C384   1.409       .  A
C384        F385   1.358       .  S
C389        C390   1.410       .  A
C389        C394   1.404       .  A
C389        H396   1.083       .  S
C390        C391   1.411       .  A
C391        C392   1.393       .  A
C391        F398   1.358       .  S
C392        C393   1.401       .  A
C392        H397   1.084       .  S
C393        C394   1.403       .  A
C394        F395   1.357       .  S
C399        C400   1.404       .  A
C399        C404   1.395       .  A
C399        H406   1.084       .  S
C400        C401   1.410       .  A
C401        C402   1.397       .  A
C401        F408   1.357       .  S
C402        C403   1.404       .  A
C402        H407   1.083       .  S
C403        C404   1.410       .  A
C404        F405   1.358       .  S
C409        C410   1.404       .  A
C409        C414   1.398       .  A
C409        H416   1.082       .  S
C410        C411   1.408       .  A
C411        C412   1.397       .  A
C411        F418   1.358       .  S
C412        C413   1.403       .  A
C412        H417   1.082       .  S
C413        C414   1.405       .  A
C414        F415   1.358       .  S
C419        C420   1.398       .  A
C419        C424   1.395       .  A
C419        H426   1.084       .  S
C420        C421   1.404       .  A
C421        C422   1.404       .  A
C421        F428   1.358       .  S
C422        C423   1.410       .  A
C422        H427   1.083       .  S
C423        C424   1.412       .  A
C424        F425   1.357       .  S
C429        C430   1.400       .  A
C429        C434   1.392       .  A
C429        H436   1.084       .  S
C430        C431   1.405       .  A
C431        C432   1.403       .  A
C431        F438   1.357       .  S
C432        C433   1.409       .  A
C432        H437   1.083       .  S
C433        C434   1.410       .  A
C434        F435   1.358       .  S
C439        C440   1.404       .  A
C439        C444   1.388       .  A
C439        H446   1.083       .  S
C440        C441   1.408       .  A
C441        C442   1.403       .  A
C441        F448   1.357       .  S
C442        C443   1.408       .  A
C442        H447   1.083       .  S
C443        C444   1.408       .  A
C444        F445   1.358       .  S
C449        C450   1.403       .  A
C449        C454   1.401       .  A
C449        H456   1.083       .  S
C450        C451   1.404       .  A
C451        C452   1.398       .  A
C451        F458   1.358       .  S
C452        C453   1.402       .  A
C452        H457   1.083       .  S
C453        C454   1.404       .  A
C454        F455   1.357       .  S
C459        C460   1.401       .  A
C459        C464   1.396       .  A
C459        H466   1.081       .  S
C460        C461   1.400       .  A
C461        C462   1.398       .  A
C461        F468   1.358       .  S
C462        C463   1.407       .  A
C462        H467   1.083       .  S
C463        C464   1.406       .  A
C464        F465   1.358       .  S
O469       Cr487   1.958       .  S
O469        C477   1.259       .  A
O470       Cr487   1.992       .  S
O470        C471   1.261       .  A
C471        O472   1.262       .  A
C471        C918   1.466       .  S
O472       Cr488   1.995       .  S
O473       Cr488   2.001       .  S
O473        C474   1.266       .  A
C474        O475   1.260       .  A
C474        C881   1.471       .  S
O475       Cr489   1.972       .  S
O476       Cr489   2.021       .  S
O476        C477   1.269       .  A
C477        C898   1.471       .  S
O478       Cr487   1.986       .  S
O478        C486   1.259       .  A
O479       Cr487   1.971       .  S
O479        C480   1.260       .  A
C480        O481   1.267       .  A
C480        C931   1.474       .  S
O481       Cr488   2.014       .  S
O482       Cr488   1.991       .  S
O482        C483   1.264       .  A
C483        O484   1.266       .  A
C483        C891   1.489       .  S
O484       Cr489   1.999       .  S
O485       Cr489   1.988       .  S
O485        C486   1.258       .  A
C486        C908   1.479       .  S
Cr487       O490   1.763       .  S
Cr488       O490   1.774       .  S
Cr489       O490   1.772       .  S
O491       Cr509   2.002       .  S
O491        C499   1.260       .  A
O492       Cr509   1.961       .  S
O492        C493   1.259       .  A
C493        O494   1.272       .  A
C493        C871   1.478       .  S
O494       Cr510   2.021       .  S
O495       Cr510   1.974       .  S
O495        C496   1.258   1_565  A
C496        O497   1.268       .  A
C496        C831   1.488       .  S
O497       Cr511   2.011   1_545  S
O498       Cr511   1.998       .  S
O498        C499   1.260       .  A
C499        C848   1.485       .  S
O500       Cr509   1.952       .  S
O500        C508   1.257       .  A
O501       Cr509   1.998       .  S
O501        C502   1.261       .  A
C502        O503   1.257       .  A
C502        C921   1.467       .  S
O503       Cr510   1.986       .  S
O504       Cr510   2.013       .  S
O504        C505   1.270   1_565  A
C505        O506   1.263       .  A
C505        C838   1.485       .  S
O506       Cr511   1.976   1_545  S
O507       Cr511   2.038       .  S
O507        C508   1.273       .  A
C508        C861   1.471       .  S
Cr509       O512   1.762       .  S
Cr510       O512   1.768       .  S
Cr511       O512   1.770       .  S
O513       Cr531   1.966       .  S
O513        C521   1.258       .  A
O514       Cr531   1.991       .  S
O514        C515   1.260       .  A
C515        O516   1.259       .  A
C515        C928   1.460       .  S
O516       Cr532   1.988       .  S
O517       Cr532   1.993       .  S
O517        C518   1.266       .  A
C518        O519   1.265       .  A
C518        C801   1.481   1_455  S
O519       Cr533   1.989       .  S
O520       Cr533   2.041       .  S
O520        C521   1.273       .  A
C521        C818   1.479       .  S
O522       Cr531   1.995       .  S
O522        C530   1.260       .  A
O523       Cr531   1.972       .  S
O523        C524   1.261       .  A
C524        O525   1.268       .  A
C524        C868   1.479       .  S
O525       Cr532   2.013       .  S
O526       Cr532   1.987       .  S
O526        C527   1.263   1_455  A
C527        O528   1.270       .  A
C527        C791   1.487       .  S
O528       Cr533   2.014   1_655  S
O529       Cr533   1.994       .  S
O529        C530   1.261       .  A
C530        C808   1.480       .  S
Cr531       O534   1.762       .  S
Cr532       O534   1.767       .  S
Cr533       O534   1.767       .  S
O535       Cr553   1.993       .  S
O535        C543   1.259       .  A
O536       Cr553   1.964       .  S
C537        O538   1.270       .  A
C537        C781   1.478       .  S
O538       Cr554   2.020       .  S
O539       Cr554   1.980       .  S
O539        C540   1.261       .  A
C540        O541   1.268       .  A
C540        C758   1.486       .  S
O542       Cr555   1.995       .  S
O542        C543   1.261       .  A
C543        C828   1.485       .  S
O544       Cr553   1.957       .  S
O544        C552   1.257       .  A
O545       Cr553   1.987       .  S
C546        O547   1.259       .  A
C546        C771   1.463       .  S
O547       Cr554   1.992       .  S
O548       Cr554   2.004       .  S
O548        C549   1.267       .  A
C549        O550   1.262       .  A
C549        C751   1.480       .  S
O551       Cr555   2.032       .  S
O551        C552   1.272       .  A
C552        C888   1.468       .  S
Cr553       O556   1.760       .  S
Cr555       O556   1.766       .  S
O557       Cr575   1.953       .  S
O557        C565   1.259       .  A
O558       Cr575   1.990       .  S
C559        O560   1.261       .  A
C559        C741   1.471       .  S
O560       Cr576   2.000       .  S
O561       Cr576   1.992       .  S
O561        C562   1.266       .  A
C562        O563   1.267       .  A
C562        C718   1.487       .  S
O564       Cr577   2.033       .  S
O564        C565   1.272       .  A
C565        C798   1.470       .  S
O566       Cr575   1.994       .  S
O566        C574   1.257       .  A
O567       Cr575   1.971       .  S
C568        O569   1.268       .  A
C568        C778   1.478       .  S
O569       Cr576   2.013       .  S
O570       Cr576   1.982       .  S
O570        C571   1.262       .  A
C571        O572   1.265       .  A
C571        C728   1.477       .  S
O573       Cr577   2.000       .  S
O573        C574   1.260       .  A
C574        C841   1.476       .  S
Cr575       O578   1.762       .  S
Cr577       O578   1.771       .  S
O579       Cr597   1.998       .  S
O579        C587   1.259       .  A
O580       Cr597   1.976       .  S
C581        O582   1.268       .  A
C581        C768   1.481       .  S
O582       Cr598   2.014       .  S
O583       Cr598   1.983       .  S
O583        C584   1.261       .  A
C584        O585   1.269       .  A
C584        C698   1.492       .  S
O586       Cr599   1.983       .  S
O586        C587   1.257       .  A
C587        C878   1.475       .  S
O588       Cr597   1.966       .  S
O588        C596   1.261       .  A
O589       Cr597   1.993       .  S
C590        O591   1.261       .  A
C590        C738   1.472       .  S
O591       Cr598   1.998       .  S
O592       Cr598   2.009       .  S
O592        C593   1.267       .  A
C593        O594   1.259       .  A
C593        C711   1.479       .  S
O595       Cr599   2.032       .  S
O595        C596   1.273       .  A
C596        C788   1.486       .  S
Cr597       O600   1.765       .  S
Cr599       O600   1.770       .  S
O601       Cr619   1.992       .  S
O601        C609   1.259       .  A
O602       Cr619   1.967       .  S
O602        C603   1.259       .  A
C603        O604   1.269       .  A
C603        C688   1.477       .  S
O604       Cr620   2.016       .  S
O605       Cr620   1.983       .  S
O605        C606   1.261       .  A
C606        O607   1.265       .  A
C606        C901   1.483       .  S
O607       Cr621   1.999       .  S
O608       Cr621   2.004       .  S
O608        C609   1.263       .  A
C609        C701   1.486       .  S
O610       Cr619   1.961       .  S
O610        C618   1.260       .  A
O611       Cr619   1.994       .  S
O611        C612   1.262       .  A
C612        O613   1.259       .  A
C612        C678   1.464   1_565  S
O613       Cr620   1.989       .  S
O614       Cr620   2.001       .  S
O614        C615   1.268       .  A
C615        O616   1.265       .  A
C615        C858   1.486       .  S
O616       Cr621   1.988       .  S
O617       Cr621   2.021       .  S
O617        C618   1.270       .  A
C618        C731   1.474       .  S
Cr619       O622   1.761       .  S
Cr620       O622   1.767       .  S
Cr621       O622   1.766       .  S
O623       Cr641   1.940       .  S
O623        C631   1.256       .  A
O624       Cr641   1.990       .  S
O624        C625   1.261       .  A
C625        O626   1.261       .  A
C625        C668   1.471   1_565  S
O626       Cr642   1.994       .  S
O627       Cr642   2.011       .  S
O627        C628   1.269       .  A
C628        O629   1.264       .  A
C628        C851   1.486       .  S
O629       Cr643   1.983       .  S
O630       Cr643   2.041       .  S
O630        C631   1.274       .  A
C631        C761   1.469       .  S
O632       Cr641   1.987       .  S
O632        C640   1.256       .  A
O633       Cr641   1.964       .  S
O633        C634   1.258       .  A
C634        O635   1.271       .  A
C634        C691   1.480   1_455  S
O635       Cr642   2.022       .  S
O636       Cr642   1.980       .  S
O636        C637   1.261       .  A
C637        O638   1.268       .  A
C637        C811   1.487       .  S
O638       Cr643   2.006       .  S
O639       Cr643   2.000       .  S
O639        C640   1.258       .  A
C640        C708   1.475       .  S
Cr641       O644   1.762       .  S
Cr642       O644   1.769       .  S
Cr643       O644   1.770       .  S
O645       Cr663   1.967       .  S
O645        C653   1.261       .  A
O646       Cr663   1.988       .  S
O646        C647   1.261       .  A
C647        O648   1.259       .  A
C647        C681   1.463   1_455  S
O648       Cr664   1.988       .  S
O649       Cr664   2.012       .  S
O649        C650   1.270       .  A
C650        O651   1.267       .  A
C650        C821   1.493       .  S
O651       Cr665   1.990       .  S
O652       Cr665   2.029       .  S
O652        C653   1.270       .  A
C653        C721   1.476       .  S
O654       Cr663   1.997       .  S
O654        C662   1.259       .  A
O655       Cr663   1.972       .  S
O655        C656   1.262       .  A
C656        O657   1.271       .  A
C656        C671   1.486       .  S
O657       Cr664   2.025       .  S
O658       Cr664   1.979       .  S
O658        C659   1.260       .  A
C659        O660   1.264       .  A
C659        C911   1.481       .  S
O660       Cr665   1.993       .  S
O661       Cr665   1.991       .  S
O661        C662   1.259       .  A
C662        C748   1.470       .  S
Cr663       O666   1.762       .  S
Cr664       O666   1.768       .  S
Cr665       O666   1.767       .  S
C667        C668   1.401       .  A
C667        C672   1.404       .  A
C667        H674   1.083       .  S
C668        C669   1.404       .  A
C669        C670   1.393       .  A
C669        F676   1.357       .  S
C670        C671   1.406       .  A
C670        H675   1.083       .  S
C671        C672   1.413       .  A
C672        F673   1.357       .  S
C677        C678   1.404       .  A
C677        C682   1.404       .  A
C677        H684   1.083       .  S
C678        C679   1.403       .  A
C679        C680   1.389       .  A
C679        F686   1.358   1_545  S
C680        C681   1.401       .  A
C680        H685   1.084   1_655  S
C681        C682   1.404       .  A
C682        F683   1.357       .  S
C687        C688   1.405       .  A
C687        C692   1.396       .  A
C687        H694   1.084       .  S
C688        C689   1.408       .  A
C689        C690   1.396       .  A
C689        F696   1.358       .  S
C690        C691   1.407       .  A
C690        H695   1.084       .  S
C691        C692   1.408       .  A
C692        F693   1.357       .  S
C697        C698   1.406       .  A
C697        C702   1.398       .  A
C697        H704   1.083       .  S
C698        C699   1.413       .  A
C699        C700   1.404       .  A
C699        F706   1.357       .  S
C700        C701   1.405       .  A
C700        H705   1.083       .  S
C701        C702   1.410       .  A
C702        F703   1.358       .  S
C707        C708   1.403       .  A
C707        C712   1.394   1_455  A
C707        H714   1.084       .  S
C708        C709   1.407   1_455  A
C709        C710   1.402       .  A
C709        F716   1.358   1_655  S
C710        C711   1.407       .  A
C710        H715   1.084       .  S
C711        C712   1.407       .  A
C712        F713   1.358       .  S
C717        C718   1.408       .  A
C717        C722   1.391       .  A
C717        H724   1.083       .  S
C718        C719   1.409       .  A
C719        C720   1.408   1_655  A
C719        F726   1.357       .  S
C720        C721   1.407       .  A
C720        H725   1.083       .  S
C721        C722   1.402   1_455  A
C722        F723   1.358       .  S
C727        C728   1.406       .  A
C727        C732   1.402   1_545  A
C727        H734   1.083       .  S
C728        C729   1.409       .  A
C729        C730   1.391       .  A
C729        F736   1.358       .  S
C730        C731   1.402   1_545  A
C730        H735   1.084       .  S
C731        C732   1.407       .  A
C732        F733   1.357       .  S
C737        C738   1.406       .  A
C737        C742   1.408       .  A
C737        H744   1.083       .  S
C738        C739   1.404       .  A
C739        C740   1.390       .  A
C739        F746   1.359       .  S
C740        C741   1.401       .  A
C740        H745   1.084       .  S
C741        C742   1.407       .  A
C742        F743   1.357       .  S
C747        C748   1.402       .  A
C747        C752   1.398       .  A
C747        H754   1.083       .  S
C748        C749   1.404       .  A
C749        C750   1.398       .  A
C749        F756   1.358       .  S
C750        C751   1.406       .  A
C750        H755   1.082       .  S
C751        C752   1.409       .  A
C752        F753   1.358       .  S
C757        C758   1.412       .  A
C757        C762   1.404   1_545  A
C757        H764   1.083       .  S
C758        C759   1.409       .  A
C759        C760   1.391   1_545  A
C759        F766   1.358       .  S
C760        C761   1.402       .  A
C760        H765   1.084       .  S
C761        C762   1.402       .  A
C762        F763   1.357       .  S
C767        C768   1.410       .  A
C767        C772   1.400       .  A
C767        H774   1.083       .  S
C768        C769   1.408       .  A
C769        C770   1.395       .  A
C769        F776   1.358   1_556  S
C770        C771   1.402       .  A
C770        H775   1.083   1_556  S
C771        C772   1.400       .  A
C772        F773   1.357       .  S
C777        C778   1.404   1_554  A
C777        C782   1.394       .  A
C778        C779   1.410       .  A
C779        C780   1.397       .  A
C779        F786   1.358       .  S
C780        C781   1.404       .  A
C780        H785   1.084       .  S
C781        C782   1.409   1_556  A
C787        C788   1.408       .  A
C787        C792   1.408       .  A
C787        H794   1.083       .  S
C788        C789   1.407       .  A
C789        C790   1.395       .  A
C789        F796   1.358       .  S
C790        C791   1.405       .  A
C790        H795   1.083       .  S
C791        C792   1.410       .  A
C792        F793   1.357   1_655  S
C797        C798   1.404       .  A
C797        C802   1.404       .  A
C797        H804   1.083       .  S
C798        C799   1.402       .  A
C799        C800   1.389       .  A
C799        F806   1.358       .  S
C800        C801   1.406       .  A
C800        H805   1.083       .  S
C801        C802   1.410       .  A
C802        F803   1.357       .  S
C807        C808   1.404       .  A
C807        C812   1.401       .  A
C807        H814   1.083       .  S
C808        C809   1.407       .  A
C809        C810   1.397       .  A
C809        F816   1.358       .  S
C810        C811   1.406       .  A
C810        H815   1.083       .  S
C811        C812   1.411       .  A
C812        F813   1.357       .  S
C817        C818   1.401       .  A
C817        C822   1.397       .  A
C817        H824   1.082       .  S
C818        C819   1.405       .  A
C819        C820   1.406       .  A
C819        F826   1.357       .  S
C820        C821   1.410       .  A
C820        H825   1.083       .  S
C821        C822   1.413       .  A
C822        F823   1.358       .  S
C827        C828   1.405       .  A
C827        C832   1.401       .  A
C827        H834   1.084       .  S
C828        C829   1.410       .  A
C829        C830   1.397       .  A
C829        F836   1.358       .  S
C830        C831   1.404       .  A
C830        H835   1.084       .  S
C831        C832   1.413       .  A
C832        F833   1.357   1_545  S
C837        C838   1.406       .  A
C837        C842   1.398       .  A
C837        H844   1.082       .  S
C838        C839   1.410       .  A
C839        C840   1.402       .  A
C839        F846   1.357   1_545  S
C840        C841   1.404       .  A
C840        H845   1.082       .  S
C841        C842   1.405       .  A
C842        F843   1.358       .  S
C847        C848   1.406       .  A
C847        C852   1.403       .  A
C847        H854   1.082       .  S
C848        C849   1.409       .  A
C849        C850   1.400       .  A
C849        F856   1.357       .  S
C850        C851   1.405       .  A
C850        H855   1.082       .  S
C851        C852   1.409       .  A
C852        F853   1.358       .  S
C857        C858   1.410       .  A
C857        C862   1.404       .  A
C857        H864   1.083       .  S
C858        C859   1.411       .  A
C859        C860   1.393       .  A
C859        F866   1.358       .  S
C860        C861   1.401       .  A
C860        H865   1.084       .  S
C861        C862   1.403       .  A
C862        F863   1.357       .  S
C867        C868   1.404       .  A
C867        C872   1.395       .  A
C867        H874   1.084       .  S
C868        C869   1.410       .  A
C869        C870   1.397       .  A
C869        F876   1.357       .  S
C870        C871   1.404       .  A
C870        H875   1.083       .  S
C871        C872   1.410       .  A
C872        F873   1.358       .  S
C877        C878   1.404       .  A
C877        C882   1.398       .  A
C877        H884   1.082       .  S
C878        C879   1.408       .  A
C879        C880   1.397       .  A
C879        F886   1.358       .  S
C880        C881   1.403       .  A
C880        H885   1.082       .  S
C881        C882   1.405       .  A
C882        F883   1.358       .  S
C887        C888   1.398       .  A
C887        C892   1.395       .  A
C887        H894   1.084       .  S
C888        C889   1.404       .  A
C889        C890   1.404       .  A
C889        F896   1.358       .  S
C890        C891   1.410       .  A
C890        H895   1.083       .  S
C891        C892   1.412       .  A
C892        F893   1.357       .  S
C897        C898   1.400       .  A
C897        C902   1.392       .  A
C897        H904   1.084       .  S
C898        C899   1.405       .  A
C899        C900   1.403       .  A
C899        F906   1.357       .  S
C900        C901   1.409       .  A
C900        H905   1.083       .  S
C901        C902   1.410       .  A
C902        F903   1.358       .  S
C907        C908   1.404       .  A
C907        C912   1.388       .  A
C907        H914   1.083       .  S
C908        C909   1.408       .  A
C909        C910   1.403       .  A
C909        F916   1.357       .  S
C910        C911   1.408       .  A
C910        H915   1.083       .  S
C911        C912   1.408       .  A
C912        F913   1.358       .  S
C917        C918   1.403       .  A
C917        C922   1.401       .  A
C917        H924   1.083       .  S
C918        C919   1.404       .  A
C919        C920   1.398       .  A
C919        F926   1.358       .  S
C920        C921   1.402       .  A
C920        H925   1.083       .  S
C921        C922   1.404       .  A
C922        F923   1.357       .  S
C927        C928   1.401       .  A
C927        C932   1.396       .  A
C927        H934   1.081       .  S
C928        C929   1.400       .  A
C929        C930   1.398       .  A
C929        F936   1.358       .  S
C930        C931   1.407       .  A
C930        H935   1.083       .  S
C931        C932   1.406       .  A
C932        F933   1.358       .  S
