geometry optimzed in LAMMPS
_audit_creation_date              2020-11-30 
_audit_creation_method            'lammps2cif' 
_symmetry_space_group_name_H-M    'P1' 
_symmetry_Int_Tables_number       1 
_symmetry_cell_setting            triclinic 
loop_ 
_symmetry_equiv_pos_as_xyz 
  x,y,z 
_cell_length_a                    61.51503459 
_cell_length_b                    21.138610824722782 
_cell_length_c                    33.81276646662172 
_cell_angle_alpha                 90.44895252044566 
_cell_angle_beta                  90.40076468936581 
_cell_angle_gamma                 87.89543797688317 
loop_ 
_atom_site_label 
_atom_site_type_symbol 
_atom_site_fract_x 
_atom_site_fract_y 
_atom_site_fract_z 
_atom_site_charge 
O1          O  0.13079760  0.34478401  0.45502275    -0.74000
O2          O  0.08710037  0.23192088  0.42046146    -0.74000
O3          O  0.12816242  0.21947127  0.44866812    -0.74100
O4          O  0.08992996  0.36072093  0.42773336    -0.74200
O5          O  0.10177392  0.36471232  0.36565772    -0.74100
O6          O  0.14128333  0.22334496  0.38751601    -0.74100
O7          O  0.09994913  0.23499245  0.35897527    -0.74000
O8          O  0.14342920  0.34890787  0.39333091    -0.74100
Ni9        Ni  0.10837806  0.28920879  0.43997557     1.25400
Ni10       Ni  0.12187862  0.29335710  0.37397304     1.25400
C11         C  0.14500247  0.36192776  0.43021990     0.88200
C12         C  0.08693753  0.21284097  0.38437104     0.88100
C13         C  0.14180533  0.20015768  0.42249224     0.88100
C14         C  0.08955446  0.38647768  0.39363961     0.88300
N15         N  0.03240174  0.15047134  0.36020814    -0.36200
N16         N  0.06684276  0.05086696  0.35832881    -0.56800
N17         N  0.03409613  0.96075324  0.33872054    -0.36200
N18         N  0.99960055  0.06084867  0.33919659    -0.56800
C19         C  0.05047298  0.18503436  0.35951642     0.27400
C20         C  0.01536546  0.18995975  0.35067338     0.27400
C21         C  0.05248930  0.92412414  0.33291308     0.27400
C22         C  0.01712198  0.92894178  0.32348892     0.27400
C23         C  0.07838479  0.09925055  0.37287413     0.36000
C24         C  0.07962830  0.99745581  0.36131743     0.36000
C25         C  0.98630149  0.11178765  0.34757840     0.36000
C26         C  0.98694056  0.00985812  0.33608558     0.36000
C27         C  0.04490796  0.24659537  0.34857583    -0.21500
C28         C  0.02270863  0.24980248  0.34324127    -0.21500
C29         C  0.04683686  0.86829909  0.31432094    -0.21500
C30         C  0.02497707  0.87128619  0.30844611    -0.21500
C31         C  0.09875511  0.07660574  0.38504602    -0.22500
C32         C  0.09962821  0.01239879  0.37744371    -0.22500
C33         C  0.96495055  0.09343760  0.34898115    -0.22500
C34         C  0.96531165  0.02914206  0.34134188    -0.22500
C35         C  0.07146458  0.16406975  0.37199147    -0.17900
C36         C  0.99323293  0.17486238  0.35212278    -0.17900
C37         C  0.99460033  0.94731344  0.32597859    -0.17900
C38         C  0.07395791  0.93703758  0.34638139    -0.17900
H39         H  0.05571869  0.28544171  0.34536222     0.15000
H40         H  0.01300497  0.29157021  0.33523893     0.15000
H41         H  0.05672332  0.82669230  0.30719365     0.15000
H42         H  0.01634080  0.83229967  0.29609400     0.15000
H43         H  0.11186492  0.10371533  0.39706955     0.13300
H44         H  0.11362605  0.98108143  0.38260488     0.13300
H45         H  0.95058796  0.12339378  0.35417950     0.13300
H46         H  0.95115977  0.00036950  0.33947640     0.13300
H47         H  0.03137747  0.10548069  0.37210372     0.26600
H48         H  0.03276183  0.00135822  0.35604470     0.26600
N49         N  0.03409185  0.46307332  0.37898517    -0.36200
N50         N  0.06834291  0.55506483  0.38093190    -0.56800
N51         N  0.03489923  0.65480144  0.36879152    -0.36200
N52         N  0.00058552  0.56328182  0.36983150    -0.56800
C53         C  0.05133656  0.42675924  0.39161852     0.27400
C54         C  0.01594958  0.43093685  0.38665888     0.27400
C55         C  0.05253560  0.69017852  0.37507292     0.27400
C56         C  0.01711206  0.69456338  0.36849364     0.27400
C57         C  0.08097182  0.50124148  0.37926403     0.36000
C58         C  0.08146244  0.60373369  0.37393370     0.36000
C59         C  0.98794299  0.51247393  0.36539828     0.36000
C60         C  0.98846275  0.61486387  0.35847099     0.36000
C61         C  0.04399309  0.37099754  0.40712348    -0.21500
C62         C  0.02193999  0.37342474  0.40388425    -0.21500
C63         C  0.04579494  0.75309044  0.37969881    -0.21500
C64         C  0.02347490  0.75586567  0.37546578    -0.21500
C65         C  0.10239455  0.51591975  0.37253287    -0.22500
C66         C  0.10268220  0.58073427  0.36883648    -0.22500
C67         C  0.96737913  0.53225544  0.35242790    -0.22500
C68         C  0.96777969  0.59685036  0.34768886    -0.22500
C69         C  0.07357205  0.43977882  0.38669880    -0.17900
C70         C  0.99433588  0.44945647  0.37580620    -0.17900
C71         C  0.99565106  0.67804957  0.35818198    -0.17900
C72         C  0.07460194  0.66857430  0.37218840    -0.17900
H73         H  0.05328216  0.33069622  0.41843651     0.15000
H74         H  0.01195420  0.33490106  0.41223854     0.15000
H75         H  0.05600121  0.79308324  0.38457808     0.15000
H76         H  0.01311970  0.79835082  0.37654683     0.15000
H77         H  0.11638320  0.48350214  0.37064729     0.13300
H78         H  0.11692411  0.60780156  0.36326396     0.13300
H79         H  0.95344360  0.50353772  0.34713841     0.13300
H80         H  0.95426622  0.62711669  0.33794457     0.13300
H81         H  0.03485839  0.50341227  0.36163289     0.26600
H82         H  0.03529494  0.60791962  0.35916917     0.26600
O83         O  0.10391062  0.74063687  0.38328785    -0.74000
O84         O  0.14598703  0.85500180  0.34155907    -0.74000
O85         O  0.10391892  0.86907299  0.37045802    -0.74100
O86         O  0.14579295  0.73094643  0.35534746    -0.74600
O87         O  0.13211873  0.71333532  0.29524260    -0.74100
O88         O  0.09230862  0.85492215  0.30875556    -0.74100
O89         O  0.13276622  0.83621291  0.28133872    -0.74000
O90         O  0.09069378  0.72824160  0.32224175    -0.74100
Ni91       Ni  0.12520962  0.79962000  0.36512877     1.25400
Ni92       Ni  0.11135897  0.78261373  0.30006133     1.25400
C93         C  0.09055522  0.71509128  0.35902491     0.88200
C94         C  0.14706255  0.86048196  0.30375315     0.88100
C95         C  0.09115403  0.88505397  0.34174879     0.88100
C96         C  0.14691771  0.70320215  0.32153506     0.88300
C97         C  0.76791396  0.47443577  0.13858876     0.86900
C98         C  0.75621965  0.53045493  0.11834699    -0.53300
C99         C  0.76918762  0.56886468  0.09770903     0.09800
C100        C  0.79365881  0.55123237  0.10351703     0.20800
C101        C  0.78219222  0.44265857  0.10530231    -0.54100
C102        C  0.79605394  0.48341981  0.08743039     0.09900
C103        C  0.78464190  0.50325508  0.16621009    -0.53600
C104        C  0.79821723  0.54311744  0.14820764     0.10500
H105        H  0.73864523  0.53179404  0.11417509     0.15000
H106        H  0.80455043  0.58563849  0.09002919     0.00800
H107        H  0.78148162  0.39363429  0.09629863     0.15300
H108        H  0.78650964  0.49004515  0.19707256     0.15100
C109        C  0.79508455  0.05673511  0.02495439     0.86900
C110        C  0.78306321  0.00488048  0.00245980    -0.53300
C111        C  0.77554350  0.95812362  0.02560207     0.09800
C112        C  0.78186726  0.96547692  0.06946824     0.20800
C113        C  0.77874650  0.07899283  0.05735520    -0.54100
C114        C  0.77177947  0.03083515  0.08091765     0.09900
C115        C  0.81318326  0.02086943  0.04717687    -0.53600
C116        C  0.80662304  0.97368812  0.07066953     0.10500
H117        H  0.77649448  0.01060578  0.97289140     0.15000
H118        H  0.77684022  0.92550942  0.08798372     0.00800
H119        H  0.77234281  0.12737975  0.05943721     0.15300
H120        H  0.82992351  0.03542559  0.04654681     0.15100
O121        O  0.64364220  0.23368044  0.30245258    -0.74000
O122        O  0.60326057  0.10766415  0.33181658    -0.74000
O123        O  0.64252079  0.10896531  0.29309480    -0.74100
O124        O  0.60472170  0.23752198  0.34088466    -0.74200
O125        O  0.58735092  0.24922041  0.28318541    -0.74100
O126        O  0.62527400  0.12340787  0.23569577    -0.74100
O127        O  0.58690226  0.11983987  0.27333825    -0.74000
O128        O  0.62625971  0.24766829  0.24514145    -0.74100
Ni129      Ni  0.62396019  0.17132602  0.31935805     1.25400
Ni130      Ni  0.60561961  0.18549481  0.25760431     1.25400
C131        C  0.64262948  0.25744503  0.26772237     0.88200
C132        C  0.58849557  0.09222136  0.30692660     0.88100
C133        C  0.64135729  0.09992891  0.25556074     0.88100
C134        C  0.59021002  0.26598361  0.31931541     0.88300
O135        O  0.60200864  0.74634215  0.33550176    -0.74000
O136        O  0.64736267  0.63072444  0.37182929    -0.74000
O137        O  0.60593613  0.61592609  0.34187171    -0.74100
O138        O  0.64290382  0.75582589  0.36664559    -0.74200
O139        O  0.62772196  0.76391827  0.42604259    -0.74100
O140        O  0.59491665  0.61911186  0.40440642    -0.74100
O141        O  0.63463412  0.64019584  0.43331010    -0.74000
O142        O  0.58756715  0.74803135  0.39578769    -0.74100
Ni143      Ni  0.62485055  0.68668806  0.35149821     1.25400
Ni144      Ni  0.61050778  0.69277101  0.41676156     1.25400
C145        C  0.58776658  0.76809150  0.36004923     0.88200
C146        C  0.64954996  0.62211557  0.40912287     0.88100
C147        C  0.59428910  0.59433066  0.36983799     0.88100
C148        C  0.64228029  0.77987301  0.40166291     0.88300
O149        O  0.42559197  0.75398373  0.38268219    -0.74000
O150        O  0.46668748  0.61934766  0.35983438    -0.74000
O151        O  0.42752403  0.63203240  0.40006629    -0.74100
O152        O  0.46455357  0.74782201  0.34462304    -0.74200
O153        O  0.48097708  0.76780310  0.40209818    -0.74100
O154        O  0.44651905  0.64991383  0.45492838    -0.74100
O155        O  0.48404177  0.63972970  0.41611806    -0.74000
O156        O  0.44193381  0.77187554  0.44052324    -0.74100
Ni157      Ni  0.44570307  0.68731621  0.36941850     1.25400
Ni158      Ni  0.46424057  0.70824956  0.42998983     1.25400
C159        C  0.42521774  0.77694302  0.41773271     0.88200
C160        C  0.48202983  0.60636893  0.38453181     0.88100
C161        C  0.42978801  0.62809139  0.43794102     0.88100
C162        C  0.47835111  0.77884020  0.36522996     0.88300
C163        C  0.29509723  0.90199057  0.06358663     0.86900
C164        C  0.31084791  0.94421308  0.08553700    -0.53300
C165        C  0.30148341  0.99485185  0.10471594     0.09800
C166        C  0.27660179  0.00061071  0.09882979     0.20800
C167        C  0.27809063  0.88517089  0.09489687    -0.54100
C168        C  0.26814695  0.93704648  0.11332038     0.09900
C169        C  0.28288373  0.94831820  0.03568285    -0.53600
C170        C  0.27269902  0.99842141  0.05376987     0.10500
H171        H  0.32824855  0.93367694  0.08686612     0.15000
H172        H  0.26955876  0.04369853  0.11329357     0.00800
H173        H  0.27414021  0.83671055  0.10130344     0.15300
H174        H  0.28036377  0.94110332  0.00433260     0.15100
O175        O  0.47568185  0.14013950  0.28450002    -0.74000
O176        O  0.44028801  0.29245264  0.27239816    -0.74000
O177        O  0.48121243  0.26610909  0.30046073    -0.74100
O178        O  0.43596369  0.17104156  0.25561067    -0.74200
O179        O  0.42202389  0.15453819  0.31517831    -0.74100
O180        O  0.46744332  0.25569667  0.36078326    -0.74100
O181        O  0.42619222  0.27673611  0.33188433    -0.74000
O182        O  0.46334421  0.12774870  0.34552465    -0.74100
Ni183      Ni  0.45898699  0.21771069  0.27641685     1.25400
Ni184      Ni  0.44446254  0.20280906  0.34075347     1.25400
C185        C  0.47570710  0.10912354  0.31701704     0.88200
C186        C  0.42575172  0.30524678  0.29859924     0.88100
C187        C  0.48135354  0.27942070  0.33737948     0.88100
C188        C  0.42058027  0.15259073  0.27721093     0.88300
C189        C  0.26850185  0.49810082  0.10081707     0.86900
C190        C  0.28397187  0.54291144  0.08048876    -0.53300
C191        C  0.29799702  0.57250665  0.10533420     0.09800
C192        C  0.29409581  0.55824113  0.14944470     0.20800
C193        C  0.28319181  0.45410483  0.12630660    -0.54100
C194        C  0.29654636  0.48537545  0.15169807     0.09900
C195        C  0.25661554  0.54222456  0.13027406    -0.53600
C196        C  0.26958093  0.57412313  0.15594660     0.10500
H197        H  0.28479272  0.54880075  0.04881403     0.15000
H198        H  0.30517311  0.58354966  0.16962157     0.00800
H199        H  0.28335373  0.40284390  0.12383582     0.15300
H200        H  0.23903819  0.54848109  0.13067236     0.15100
N201        N  0.53210919  0.84175877  0.34459446    -0.36200
N202        N  0.56606532  0.93213782  0.33181772    -0.56800
N203        N  0.53196376  0.03070782  0.32180222    -0.36200
N204        N  0.49772254  0.93942832  0.33222547    -0.56800
C205        C  0.54988900  0.80240559  0.34092058     0.27400
C206        C  0.51438940  0.80612040  0.33989914     0.27400
C207        C  0.54970473  0.06337547  0.31160848     0.27400
C208        C  0.51405723  0.06816034  0.31385496     0.27400
C209        C  0.57876403  0.88192815  0.34364337     0.36000
C210        C  0.57897855  0.98265648  0.32970514     0.36000
C211        C  0.48548190  0.89155482  0.34505159     0.36000
C212        C  0.48520024  0.99370138  0.33396695     0.36000
C213        C  0.54342159  0.74160588  0.33283128    -0.21500
C214        C  0.52101996  0.74379621  0.33245311    -0.21500
C215        C  0.54281377  0.12230399  0.29768560    -0.21500
C216        C  0.52076502  0.12545558  0.29927811    -0.21500
C217        C  0.59999002  0.90046815  0.34864930    -0.22500
C218        C  0.60018993  0.96383994  0.33937467    -0.22500
C219        C  0.46483597  0.91531882  0.35431928    -0.22500
C220        C  0.46457895  0.97965388  0.34694215    -0.22500
C221        C  0.57169364  0.81896609  0.34764509    -0.17900
C222        C  0.49261099  0.82662416  0.34725878    -0.17900
C223        C  0.49196954  0.05479310  0.32216354    -0.17900
C224        C  0.57200325  0.04435095  0.31707436    -0.17900
H225        H  0.55382731  0.69992235  0.32802862     0.15000
H226        H  0.51074231  0.70381884  0.32804169     0.15000
H227        H  0.55232661  0.16171489  0.28906918     0.15000
H228        H  0.51134416  0.16783003  0.29211016     0.15000
H229        H  0.61399882  0.87117643  0.35719742     0.13300
H230        H  0.61443834  0.99229653  0.33963041     0.13300
H231        H  0.45130348  0.88897401  0.36487733     0.13300
H232        H  0.45074830  0.01212592  0.35083399     0.13300
H233        H  0.53205789  0.88761994  0.35571396     0.26600
H234        H  0.53209174  0.98838033  0.33674425     0.26600
N235        N  0.53778504  0.53027471  0.36715059    -0.36200
N236        N  0.57128218  0.43207200  0.35107503    -0.56800
N237        N  0.53673411  0.34109891  0.34618461    -0.36200
N238        N  0.50355060  0.43869367  0.36453586    -0.56800
C239        C  0.55604503  0.56274389  0.37432895     0.27400
C240        C  0.52061836  0.56654474  0.38048275     0.27400
C241        C  0.55470402  0.30218300  0.34755230     0.27400
C242        C  0.51944412  0.30566339  0.35450645     0.27400
C243        C  0.58398021  0.48310228  0.34920966     0.36000
C244        C  0.58311365  0.38135919  0.33718272     0.36000
C245        C  0.49082514  0.49240705  0.36566000     0.36000
C246        C  0.49046995  0.39062446  0.35495602     0.36000
C247        C  0.55009497  0.62026061  0.39201269    -0.21500
C248        C  0.52819554  0.62271994  0.39570020    -0.21500
C249        C  0.54880681  0.24187108  0.35781843    -0.21500
C250        C  0.52652972  0.24403959  0.36205826    -0.21500
C251        C  0.60430318  0.46431473  0.33491532    -0.22500
C252        C  0.60367637  0.40010532  0.32688172    -0.22500
C253        C  0.46937554  0.47773983  0.35793110    -0.22500
C254        C  0.46922122  0.41359923  0.35071918    -0.22500
C255        C  0.57772882  0.54506054  0.36282975    -0.17900
C256        C  0.49822049  0.55335866  0.37621599    -0.17900
C257        C  0.49734837  0.32603551  0.35149074    -0.17900
C258        C  0.57588001  0.31808941  0.33597090    -0.17900
H259        H  0.55986745  0.65970338  0.39979544     0.15000
H260        H  0.51941031  0.66415648  0.40668062     0.15000
H261        H  0.55945704  0.20032909  0.36118066     0.15000
H262        H  0.51658956  0.20459944  0.36929026     0.15000
H263        H  0.61817240  0.49355865  0.33086903     0.13300
H264        H  0.61698178  0.37042251  0.31561188     0.13300
H265        H  0.45513934  0.50923832  0.35781032     0.13300
H266        H  0.45499457  0.38685309  0.34393234     0.13300
H267        H  0.53685193  0.48933760  0.35003433     0.26600
H268        H  0.53594580  0.38642980  0.33428414     0.26600
O269        O  0.93397574  0.24446602  0.42269891    -0.74000
O270        O  0.97577836  0.37159407  0.41161873    -0.74000
O271        O  0.93440517  0.36878134  0.43449197    -0.74100
O272        O  0.97622594  0.24295800  0.39995355    -0.74200
O273        O  0.96553265  0.25604549  0.33731595    -0.74100
O274        O  0.92344682  0.38491858  0.37222600    -0.74100
O275        O  0.96601643  0.38577415  0.34866350    -0.74000
O276        O  0.92310463  0.26030369  0.36046725    -0.74100
Ni277      Ni  0.95568433  0.30628377  0.41916123     1.25400
Ni278      Ni  0.94435482  0.32236406  0.35221013     1.25400
C279        C  0.92031576  0.23611456  0.39454226     0.88200
C280        C  0.97764949  0.40044638  0.37874180     0.88100
C281        C  0.92124151  0.39465024  0.40956626     0.88100
C282        C  0.97737274  0.22697196  0.36340290     0.88300
O283        O  0.98379119  0.73826557  0.30291394    -0.74000
O284        O  0.94351092  0.84467739  0.24680879    -0.74000
O285        O  0.98096056  0.86436993  0.28505139    -0.74100
O286        O  0.94516281  0.72265093  0.26504620    -0.74200
O287        O  0.92723650  0.74457855  0.32066061    -0.74100
O288        O  0.96394767  0.88408238  0.34189299    -0.74100
O289        O  0.92499552  0.86650890  0.30195506    -0.74000
O290        O  0.96595116  0.75683924  0.35925304    -0.74100
Ni291      Ni  0.96416867  0.79192874  0.27328949     1.25400
Ni292      Ni  0.94506866  0.81420246  0.33321002     1.25400
C293        C  0.98116379  0.72762548  0.33968284     0.88200
C294        C  0.92647910  0.86674653  0.26403445     0.88100
C295        C  0.97869710  0.89707534  0.31694458     0.88100
C296        C  0.92896069  0.71417632  0.28789721     0.88300
C297        C  0.33077443  0.44597643  0.24160696    -0.01600
C298        C  0.34999557  0.41980850  0.22454137     0.07000
C299        C  0.35018470  0.40656167  0.18371246    -0.07600
C300        C  0.33211488  0.42245871  0.15972877     0.04400
C301        C  0.31364771  0.45351020  0.17647976    -0.14800
C302        C  0.31278565  0.46171383  0.21752268    -0.08100
C303        C  0.36934975  0.40054680  0.24899967     0.05400
C304        C  0.36705963  0.35354307  0.27741288    -0.09200
C305        C  0.38517835  0.32646411  0.29693548     0.00400
C306        C  0.40639530  0.34584491  0.28775731     0.00200
C307        C  0.40854833  0.39610152  0.26123270    -0.12800
C308        C  0.39021666  0.42388938  0.24218340     0.00700
C309        C  0.38143088  0.27421950  0.32300661     0.40000
C310        C  0.39317994  0.47577257  0.21548860     0.36600
C311        C  0.32934050  0.45915638  0.28348748     0.36400
C312        C  0.33306594  0.40778637  0.11798716     0.37100
N313        N  0.37823930  0.23227121  0.34370890    -0.43700
N314        N  0.39552756  0.51777660  0.19438534    -0.44100
N315        N  0.33370939  0.39579504  0.08455380    -0.41500
N316        N  0.32812258  0.46986833  0.31703156    -0.42900
H317        H  0.29799649  0.48095056  0.23068427     0.13200
H318        H  0.36449474  0.38369274  0.17058453     0.09700
H319        H  0.35109487  0.33529918  0.28276451     0.10800
H320        H  0.42463477  0.41171452  0.25403660     0.16600
C321        C  0.37116215  0.06322291  0.24423718    -0.01600
C322        C  0.36400393  0.09998927  0.21154609     0.07000
C323        C  0.37414928  0.15631217  0.20343153    -0.07600
C324        C  0.39227263  0.17408795  0.22497776     0.04400
C325        C  0.40026585  0.13605594  0.25669810    -0.14800
C326        C  0.38907208  0.08203394  0.26699336    -0.08100
C327        C  0.34712640  0.07912887  0.18330350     0.05400
C328        C  0.32586022  0.07110842  0.19636825    -0.09200
C329        C  0.30988364  0.04854479  0.17063905     0.00400
C330        C  0.31508889  0.03496762  0.13067704     0.00200
C331        C  0.33594419  0.04866202  0.11708826    -0.12800
C332        C  0.35204601  0.06871657  0.14303138     0.00700
C333        C  0.28895753  0.03648615  0.18724002     0.40000
C334        C  0.37388223  0.07364006  0.12810322     0.36600
C335        C  0.36119331  0.00446981  0.25350689     0.36400
C336        C  0.40251199  0.23105978  0.21262854     0.37100
N337        N  0.27242678  0.02801476  0.20201889    -0.43700
N338        N  0.39137886  0.07710666  0.11614637    -0.44100
N339        N  0.41049848  0.27628676  0.20152953    -0.41500
N340        N  0.35316686  0.95734302  0.26082370    -0.42900
H341        H  0.39494771  0.05297594  0.29138620     0.13200
H342        H  0.36839005  0.18526420  0.17884800     0.09700
H343        H  0.32193057  0.08065821  0.22711814     0.10800
H344        H  0.34015447  0.03937750  0.08642429     0.16600
C345        C  0.39540089  0.62760160  0.52981191    -0.01600
C346        C  0.37591055  0.60163720  0.51665850     0.07000
C347        C  0.37468209  0.57814439  0.47763088    -0.07600
C348        C  0.39233244  0.58212563  0.45145425     0.04400
C349        C  0.41187433  0.60884798  0.46459697    -0.14800
C350        C  0.41312749  0.62939792  0.50442558    -0.08100
C351        C  0.35663529  0.60091939  0.04258327     0.05400
C352        C  0.33755210  0.63517563  0.53226032    -0.09200
C353        C  0.31875858  0.63326883  0.05466441     0.00400
C354        C  0.31865205  0.59551070  0.08893975     0.00200
C355        C  0.33824376  0.56613468  0.10170351    -0.12800
C356        C  0.35695264  0.56686415  0.07837524     0.00700
C357        C  0.29949187  0.66870072  0.04187809     0.40000
C358        C  0.37570374  0.52833252  0.09028625     0.36600
C359        C  0.39722853  0.65678092  0.56844026     0.36400
C360        C  0.38974397  0.55947576  0.41141193     0.37100
N361        N  0.28393134  0.69679925  0.53238447    -0.43700
N362        N  0.39070792  0.49728491  0.09972179    -0.44100
N363        N  0.38756531  0.54118653  0.37932874    -0.41500
N364        N  0.39872433  0.68028134  0.59931891    -0.42900
H365        H  0.42763288  0.65129801  0.51555879     0.13200
H366        H  0.35969235  0.55794872  0.46733334     0.09700
H367        H  0.33730985  0.66311654  0.50561988     0.10800
H368        H  0.33855574  0.53829548  0.12835937     0.16600
C369        C  0.32363173  0.81962932  0.47954194    -0.01600
C370        C  0.34341356  0.80252502  0.99846204     0.07000
C371        C  0.34335449  0.79454610  0.03966542    -0.07600
C372        C  0.32518012  0.81443629  0.06197160     0.04400
C373        C  0.30737832  0.84625914  0.04297289    -0.14800
C374        C  0.30559535  0.83839423  0.00167596    -0.08100
C375        C  0.36417876  0.79650085  0.47685020     0.05400
C376        C  0.38105764  0.83642363  0.48791770    -0.09200
C377        C  0.40087950  0.83463160  0.46757457     0.00400
C378        C  0.40373024  0.79382816  0.43476624     0.00200
C379        C  0.38654716  0.75534473  0.42320696    -0.12800
C380        C  0.36723617  0.75496965  0.44445093     0.00700
C381        C  0.41805857  0.87440248  0.48100727     0.40000
C382        C  0.35141456  0.70895321  0.43357607     0.36600
C383        C  0.32215066  0.82799677  0.43722346     0.36400
C384        C  0.32597644  0.80713989  0.10437542     0.37100
N385        N  0.43192767  0.90602683  0.49169912    -0.43700
N386        N  0.33883034  0.67194760  0.42465580    -0.44100
N387        N  0.32659779  0.80102170  0.13834825    -0.41500
N388        N  0.32089819  0.83483687  0.40334644    -0.42900
H389        H  0.29074207  0.85132630  0.98610312     0.13200
H390        H  0.35790674  0.77615220  0.05453674     0.09700
H391        H  0.37877903  0.86875367  0.51273287     0.10800
H392        H  0.38876115  0.72146354  0.39917022     0.16600
C393        C  0.71760681  0.95345598  0.99052076    -0.01600
C394        C  0.71635229  0.89132603  0.47594455     0.07000
C395        C  0.73433287  0.84839123  0.98123669    -0.07600
C396        C  0.75344981  0.86790559  0.99981380     0.04400
C397        C  0.75476209  0.93086657  0.01304223    -0.14800
C398        C  0.73658786  0.97264007  0.00900919    -0.08100
C399        C  0.69654436  0.86951594  0.45570674     0.05400
C400        C  0.69720262  0.85541465  0.41513372    -0.09200
C401        C  0.67910239  0.83110514  0.39554481     0.00400
C402        C  0.65984758  0.82044922  0.41689899     0.00200
C403        C  0.65901842  0.83872192  0.45711006    -0.12800
C404        C  0.67716235  0.86194704  0.47660709     0.00700
C405        C  0.68119276  0.81567779  0.35406521     0.40000
C406        C  0.67622534  0.87343425  0.01884003     0.36600
C407        C  0.69947681  0.99913640  0.48653203     0.36400
C408        C  0.77162927  0.82338086  0.00415515     0.37100
N409        N  0.68293815  0.80339059  0.32079800    -0.43700
N410        N  0.67539449  0.88296214  0.05254533    -0.44100
N411        N  0.78618915  0.78761778  0.00780179    -0.41500
N412        N  0.68519668  0.03592259  0.48314639    -0.42900
H413        H  0.73759493  0.02137661  0.01895237     0.13200
H414        H  0.73349393  0.80091637  0.46944190     0.09700
H415        H  0.71208719  0.86218870  0.39893301     0.10800
H416        H  0.64454490  0.83132689  0.47434095     0.16600
C417        C  0.72098241  0.99004562  0.13682397    -0.01600
C418        C  0.71731451  0.04326510  0.16131888     0.07000
C419        C  0.73221123  0.09195976  0.16115478    -0.07600
C420        C  0.75022722  0.08927696  0.13578291     0.04400
C421        C  0.75349538  0.03688575  0.10987018    -0.14800
C422        C  0.73877261  0.98739467  0.11141285    -0.08100
C423        C  0.69739389  0.05012979  0.18569501     0.05400
C424        C  0.69903835  0.04702204  0.22699477    -0.09200
C425        C  0.68058565  0.05635302  0.25085045     0.00400
C426        C  0.65999251  0.07034607  0.23320097     0.00200
C427        C  0.65838062  0.06888679  0.19157539    -0.12800
C428        C  0.67677256  0.05959943  0.16793724     0.00700
C429        C  0.68354060  0.05266488  0.29316136     0.40000
C430        C  0.67421524  0.06327595  0.12547127     0.36600
C431        C  0.70664170  0.93746579  0.13742472     0.36400
C432        C  0.76517920  0.14016713  0.13798163     0.37100
N433        N  0.68599034  0.04926700  0.32705655    -0.43700
N434        N  0.67218718  0.06603472  0.09146522    -0.44100
N435        N  0.77688853  0.18165541  0.14028896    -0.41500
N436        N  0.69505942  0.89559471  0.13823791    -0.42900
H437        H  0.74072304  0.94652488  0.09215767     0.13200
H438        H  0.72955632  0.13261025  0.18052890     0.09700
H439        H  0.71486015  0.03812849  0.24062274     0.10800
H440        H  0.64285817  0.07883640  0.17710579     0.16600
C441        C  0.87546422  0.94909167  0.22164710    -0.01600
C442        C  0.87065009  0.90778905  0.18986350     0.07000
C443        C  0.88425095  0.85457008  0.18307673    -0.07600
C444        C  0.90260738  0.84236371  0.20615455     0.04400
C445        C  0.90742509  0.88260321  0.23859799    -0.14800
C446        C  0.89346183  0.93516928  0.24652800    -0.08100
C447        C  0.85323487  0.92102693  0.16005783     0.05400
C448        C  0.85933286  0.92135283  0.12015307    -0.09200
C449        C  0.84397215  0.93093381  0.09019646     0.00400
C450        C  0.82196569  0.94447340  0.09994197     0.00200
C451        C  0.81556096  0.94042554  0.13964070    -0.12800
C452        C  0.83096051  0.92764298  0.16963215     0.00700
C453        C  0.85138774  0.92691711  0.04973461     0.40000
C454        C  0.82348902  0.92045320  0.20964676     0.36600
C455        C  0.86310812  0.00766934  0.22768606     0.36400
C456        C  0.91618499  0.78805405  0.19480714     0.37100
N457        N  0.85748788  0.92398739  0.01744558    -0.43700
N458        N  0.81746687  0.91444967  0.24169953    -0.44100
N459        N  0.92697897  0.74516874  0.18446693    -0.41500
N460        N  0.85322225  0.05475750  0.23229960    -0.42900
H461        H  0.89707889  0.96650884  0.27104978     0.13200
H462        H  0.88078146  0.82290463  0.15857179     0.09700
H463        H  0.87631499  0.91390989  0.11229194     0.10800
H464        H  0.79868636  0.94975909  0.14751709     0.16600
C465        C  0.87924890  0.15109382  0.45368120    -0.01600
C466        C  0.85957853  0.17635975  0.43758779     0.07000
C467        C  0.86007227  0.21185914  0.40287182    -0.07600
C468        C  0.87983925  0.22513743  0.38517784     0.04400
C469        C  0.89970387  0.20559269  0.40369353    -0.14800
C470        C  0.89906666  0.16676613  0.43713412    -0.08100
C471        C  0.83843135  0.16365712  0.45604100     0.05400
C472        C  0.83539117  0.17952007  0.99608573    -0.09200
C473        C  0.81878091  0.15313346  0.01788920     0.00400
C474        C  0.80521106  0.10810947  0.99980946     0.00200
C475        C  0.80616625  0.10149908  0.95817639    -0.12800
C476        C  0.82296902  0.12711554  0.93666673     0.00700
C477        C  0.81831912  0.16581232  0.05989140     0.40000
C478        C  0.82513712  0.11079164  0.39500062     0.36600
C479        C  0.87988472  0.10724907  0.98686460     0.36400
C480        C  0.87901967  0.26098702  0.34898964     0.37100
N481        N  0.81835328  0.17544587  0.09361360    -0.43700
N482        N  0.82694717  0.09744685  0.36189736    -0.44100
N483        N  0.87824335  0.28928536  0.31981826    -0.41500
N484        N  0.88010585  0.07268450  0.01325400    -0.42900
H485        H  0.91411488  0.15025433  0.45117346     0.13200
H486        H  0.84494717  0.22990058  0.38981542     0.09700
H487        H  0.84645114  0.21129233  0.51040959     0.10800
H488        H  0.79542213  0.07160980  0.94197019     0.16600
C489        C  0.72789764  0.34409561  0.16315427    -0.01600
C490        C  0.71669373  0.37138172  0.19560262     0.07000
C491        C  0.72283693  0.42983024  0.21046828    -0.07600
C492        C  0.73942197  0.46265087  0.19281230     0.04400
C493        C  0.75124601  0.43548320  0.16037186    -0.14800
C494        C  0.74519813  0.37557567  0.14621597    -0.08100
C495        C  0.69770335  0.34203301  0.21363295     0.05400
C496        C  0.69995431  0.31566317  0.25131831    -0.09200
C497        C  0.68222526  0.28963318  0.27023227     0.00400
C498        C  0.66140345  0.29157139  0.25170212     0.00200
C499        C  0.65927873  0.31942816  0.21406376    -0.12800
C500        C  0.67719216  0.34397851  0.19493020     0.00700
C501        C  0.68641894  0.25860892  0.30756730     0.40000
C502        C  0.67422607  0.37070356  0.15599959     0.36600
C503        C  0.72129833  0.28518490  0.14572179     0.36400
C504        C  0.74300043  0.52584158  0.20757059     0.37100
N505        N  0.68991629  0.23330627  0.33729569    -0.43700
N506        N  0.67200930  0.39174756  0.12467497    -0.44100
N507        N  0.74577692  0.57649945  0.21932578    -0.41500
N508        N  0.71578302  0.23852098  0.13135067    -0.42900
H509        H  0.75297303  0.35399814  0.12072735     0.13200
H510        H  0.71392291  0.45123971  0.23504447     0.09700
H511        H  0.71578474  0.31445586  0.26570926     0.10800
H512        H  0.64367500  0.32075498  0.19892751     0.16600
C513        C  0.70859091  0.63090681  0.43376327    -0.01600
C514        C  0.70955213  0.59968318  0.47031452     0.07000
C515        C  0.69179782  0.56511240  0.48262694    -0.07600
C516        C  0.67249148  0.56565606  0.46050645     0.04400
C517        C  0.67083850  0.60132593  0.42552871    -0.14800
C518        C  0.68928382  0.63145486  0.41158215    -0.08100
C519        C  0.72902375  0.60076511  0.99670506     0.05400
C520        C  0.73032480  0.64892823  0.02539832    -0.09200
C521        C  0.74546506  0.64363604  0.05662472     0.00400
C522        C  0.75960666  0.58972261  0.05909942     0.00200
C523        C  0.75929826  0.54464722  0.02814228    -0.12800
C524        C  0.74432338  0.55153321  0.49676116     0.00700
C525        C  0.74502618  0.69131814  0.08739201     0.40000
C526        C  0.74383162  0.50156104  0.46739835     0.36600
C527        C  0.72694848  0.66414127  0.41919569     0.36400
C528        C  0.65442115  0.53053071  0.47452918     0.37100
N529        N  0.74461734  0.72978664  0.11194171    -0.43700
N530        N  0.74337888  0.46151296  0.44390893    -0.44100
N531        N  0.63990050  0.50223628  0.48545290    -0.41500
N532        N  0.74172102  0.69045147  0.40742774    -0.42900
H533        H  0.68813393  0.65953628  0.38487602     0.13200
H534        H  0.69284263  0.53921690  0.51018902     0.09700
H535        H  0.71856250  0.68842671  0.02487050     0.10800
H536        H  0.76914889  0.50148720  0.02986348     0.16600
C537        C  0.84066076  0.64876685  0.19215355    -0.01600
C538        C  0.85565233  0.60436443  0.20927196     0.07000
C539        C  0.85185202  0.53971144  0.20538327    -0.07600
C540        C  0.83345374  0.51892715  0.18526156     0.04400
C541        C  0.81843928  0.56337049  0.16814376    -0.14800
C542        C  0.82243559  0.62795996  0.17128229    -0.08100
C543        C  0.87494987  0.62447974  0.23240487     0.05400
C544        C  0.87162108  0.66087379  0.26673127    -0.09200
C545        C  0.88911380  0.68595913  0.28752202     0.00400
C546        C  0.91072748  0.67484121  0.27387559     0.00200
C547        C  0.91406961  0.63385413  0.24129609    -0.12800
C548        C  0.89645502  0.60868613  0.22062494     0.00700
C549        C  0.88396471  0.72605290  0.32120610     0.40000
C550        C  0.90082615  0.56946345  0.18624093     0.36600
C551        C  0.84334367  0.71596690  0.19619801     0.36400
C552        C  0.83044206  0.45159837  0.18278880     0.37100
N553        N  0.87972085  0.75811251  0.34817401    -0.43700
N554        N  0.90430123  0.53772636  0.15879769    -0.44100
N555        N  0.82802297  0.39760675  0.18140864    -0.41500
N556        N  0.84513062  0.76995356  0.19986112    -0.42900
H557        H  0.81094910  0.66225715  0.15842732     0.13200
H558        H  0.86313009  0.50535907  0.21875811     0.09700
H559        H  0.85513451  0.67140159  0.27664624     0.10800
H560        H  0.93043686  0.62403279  0.23060910     0.16600
C561        C  0.83119170  0.50792175  0.49753470    -0.01600
C562        C  0.84478328  0.45276016  0.99748997     0.07000
C563        C  0.84130468  0.40469921  0.02489099    -0.07600
C564        C  0.82482495  0.41155635  0.05331736     0.04400
C565        C  0.81156800  0.46766136  0.05456825    -0.14800
C566        C  0.81463205  0.51407563  0.02555547    -0.08100
C567        C  0.86385856  0.44769596  0.47111516     0.05400
C568        C  0.88366488  0.47154855  0.48404384    -0.09200
C569        C  0.90251424  0.46214301  0.46148159     0.00400
C570        C  0.90165308  0.42793701  0.42548926     0.00200
C571        C  0.88136174  0.40988721  0.41082290    -0.12800
C572        C  0.86252233  0.41905181  0.43350113     0.00700
C573        C  0.92266825  0.48650775  0.47625529     0.40000
C574        C  0.84222886  0.39607682  0.41852642     0.36600
C575        C  0.83419417  0.55791266  0.46942916     0.36400
C576        C  0.82280746  0.36187906  0.08188086     0.37100
N577        N  0.93878218  0.50643315  0.48797088    -0.43700
N578        N  0.82595143  0.37773408  0.40649051    -0.44100
N579        N  0.82110487  0.32174015  0.10459430    -0.41500
N580        N  0.83671784  0.59772947  0.44680390    -0.42900
H581        H  0.80449899  0.55703142  0.02517425     0.13200
H582        H  0.85194166  0.36261160  0.02480851     0.09700
H583        H  0.88451396  0.49573625  0.51239713     0.10800
H584        H  0.88048445  0.38379237  0.38320484     0.16600
C585        C  0.23740368  0.87682251  0.20214592    -0.01600
C586        C  0.21985530  0.92153569  0.20575693     0.07000
C587        C  0.21901678  0.97326099  0.18014889    -0.07600
C588        C  0.23369938  0.97810796  0.14910753     0.04400
C589        C  0.25111271  0.93259722  0.14464490    -0.14800
C590        C  0.25283131  0.88293112  0.17210225    -0.08100
C591        C  0.20108527  0.91317702  0.23301547     0.05400
C592        C  0.20449963  0.90185425  0.27364239    -0.09200
C593        C  0.18703425  0.88910026  0.29876853     0.00400
C594        C  0.16554120  0.88991612  0.28350980     0.00200
C595        C  0.16215745  0.90673987  0.24375831    -0.12800
C596        C  0.17946117  0.91632217  0.21842920     0.00700
C597        C  0.19187827  0.87167916  0.33914123     0.40000
C598        C  0.17436722  0.92493294  0.17695366     0.36600
C599        C  0.24004803  0.82394850  0.22850098     0.36400
C600        C  0.22924134  0.02928831  0.12198925     0.37100
N601        N  0.19591850  0.85768809  0.37146329    -0.43700
N602        N  0.17013716  0.93205967  0.14384226    -0.44100
N603        N  0.22479458  0.07162751  0.10163118    -0.41500
N604        N  0.24265673  0.78194832  0.24988467    -0.42900
H605        H  0.26633474  0.84862665  0.17026163     0.13200
H606        H  0.20604401  0.00909211  0.18337249     0.09700
H607        H  0.22090744  0.90109021  0.28557143     0.10800
H608        H  0.14581611  0.90807051  0.23141034     0.16600
C609        C  0.22315162  0.66237395  0.20252605    -0.01600
C610        C  0.22591738  0.64307219  0.24225196     0.07000
C611        C  0.24673850  0.62141375  0.25470443    -0.07600
C612        C  0.26358882  0.61116485  0.22719488     0.04400
C613        C  0.25906549  0.61695360  0.18640635    -0.14800
C614        C  0.23969614  0.64970004  0.17523097    -0.08100
C615        C  0.20700738  0.64443233  0.26983036     0.05400
C616        C  0.18793466  0.61490299  0.25760624    -0.09200
C617        C  0.16817734  0.62682983  0.27709568     0.00400
C618        C  0.16732854  0.66829033  0.31001514     0.00200
C619        C  0.18701451  0.68981310  0.32571909    -0.12800
C620        C  0.20675137  0.67856937  0.30590311     0.00700
C621        C  0.14887928  0.59851329  0.26147922     0.40000
C622        C  0.22598936  0.70664679  0.32187038     0.36600
C623        C  0.20319622  0.69306794  0.18855615     0.36400
C624        C  0.28542769  0.60074131  0.24182527     0.37100
N625        N  0.13344584  0.57571614  0.24889582    -0.43700
N626        N  0.24136049  0.72892829  0.33510170    -0.44100
N627        N  0.30294444  0.59576379  0.25441888    -0.41500
N628        N  0.18722257  0.71748789  0.17722405    -0.42900
H629        H  0.23659591  0.65967800  0.14422611     0.13200
H630        H  0.24977372  0.61114952  0.28563697     0.09700
H631        H  0.18819649  0.58563937  0.23109784     0.10800
H632        H  0.18677552  0.72080224  0.35143451     0.16600
C633        C  0.20186786  0.36029927  0.46810840    -0.01600
C634        C  0.20155685  0.41469961  0.49253181     0.07000
C635        C  0.18354825  0.45766942  0.49085194    -0.07600
C636        C  0.16533562  0.44453196  0.46750709     0.04400
C637        C  0.16511076  0.38774231  0.44569185    -0.14800
C638        C  0.18367403  0.34730927  0.44496717    -0.08100
C639        C  0.21951857  0.42678037  0.02077728     0.05400
C640        C  0.24060879  0.43333387  0.50723492    -0.09200
C641        C  0.25763017  0.44823361  0.03302109     0.00400
C642        C  0.25297394  0.46283191  0.07322084     0.00200
C643        C  0.23238444  0.44698287  0.08752772    -0.12800
C644        C  0.21568785  0.42998135  0.06176564     0.00700
C645        C  0.27952677  0.44371368  0.01794342     0.40000
C646        C  0.19480525  0.41568996  0.07812011     0.36600
C647        C  0.22011757  0.31539824  0.46784930     0.36400
C648        C  0.14722746  0.48986201  0.46578821     0.37100
N649        N  0.29704363  0.43987399  0.00565920    -0.43700
N650        N  0.17811422  0.40401570  0.09126912    -0.44100
N651        N  0.13284284  0.52657811  0.46377624    -0.41500
N652        N  0.23489578  0.28000825  0.96726542    -0.42900
H653        H  0.18342635  0.30332653  0.42821655     0.13200
H654        H  0.18354934  0.50069762  0.50853349     0.09700
H655        H  0.24400163  0.42663750  0.47601639     0.10800
H656        H  0.22900057  0.44968021  0.11890909     0.16600
C657        C  0.21872238  0.00674599  0.50053193    -0.01600
C658        C  0.21721397  0.07195868  0.98885145     0.07000
C659        C  0.23404979  0.11240463  0.99929948    -0.07600
C660        C  0.25220549  0.09006272  0.02109751     0.04400
C661        C  0.25332577  0.02684720  0.03365324    -0.14800
C662        C  0.23647081  0.98654701  0.02342027    -0.08100
C663        C  0.19745503  0.09648328  0.46770772     0.05400
C664        C  0.17709316  0.09003897  0.48536511    -0.09200
C665        C  0.15825827  0.11789587  0.46878248     0.00400
C666        C  0.15968435  0.15538609  0.43450246     0.00200
C667        C  0.17984115  0.15839690  0.41539494    -0.12800
C668        C  0.19863303  0.12913386  0.43157452     0.00700
C669        C  0.13777423  0.10752616  0.48789716     0.40000
C670        C  0.21889398  0.13377735  0.41069560     0.36600
C671        C  0.20270663  0.96178784  0.48881724     0.36400
C672        C  0.26969094  0.13194608  0.02938097     0.37100
N673        N  0.12138575  0.09887855  0.50318992    -0.43700
N674        N  0.23506896  0.13756891  0.39375356    -0.44100
N675        N  0.28381442  0.16528065  0.03585061    -0.41500
N676        N  0.18988063  0.92581559  0.47937257    -0.42900
H677        H  0.23747632  0.93739789  0.03251918     0.13200
H678        H  0.23293914  0.16153277  0.99058409     0.09700
H679        H  0.17596528  0.06440129  0.51289813     0.10800
H680        H  0.18120813  0.18645076  0.38887140     0.16600
O681        O  0.13083677  0.34545047  0.95476089    -0.74000
O682        O  0.08711148  0.23258760  0.92028009    -0.74000
O683        O  0.12818276  0.22017592  0.94843879    -0.74100
O684        O  0.08994907  0.36139165  0.92751060    -0.74200
O685        O  0.10176171  0.36530237  0.86541413    -0.74100
O686        O  0.14131123  0.22400702  0.88729015    -0.74100
O687        O  0.09995496  0.23555297  0.85878866    -0.74000
O688        O  0.14344463  0.34955496  0.89305369    -0.74100
Ni689      Ni  0.10840055  0.28989006  0.93974901     1.25400
Ni690      Ni  0.12188516  0.29397264  0.87373567     1.25400
C691        C  0.14504460  0.36253963  0.92994582     0.88200
C692        C  0.08694419  0.21343904  0.88420330     0.88100
C693        C  0.14184271  0.20089541  0.92228595     0.88100
C694        C  0.08954781  0.38708976  0.89340088     0.88300
N695        N  0.03239107  0.15102715  0.86008791    -0.36200
N696        N  0.06682678  0.05149042  0.85810302    -0.56800
N697        N  0.03406466  0.96134927  0.83835517    -0.36200
N698        N  0.99958339  0.06140402  0.83886426    -0.56800
C699        C  0.05045558  0.18563359  0.85943950     0.27400
C700        C  0.01534982  0.19051656  0.85060032     0.27400
C701        C  0.05244718  0.92459794  0.83276786     0.27400
C702        C  0.01708725  0.92937244  0.82328590     0.27400
C703        C  0.07836782  0.09983616  0.87270921     0.36000
C704        C  0.07959557  0.99805111  0.86110040     0.36000
C705        C  0.98627500  0.11236507  0.84712764     0.36000
C706        C  0.98690559  0.01049078  0.83547706     0.36000
C707        C  0.04487704  0.24722508  0.84858707    -0.21500
C708        C  0.02267871  0.25040774  0.84326310    -0.21500
C709        C  0.04678484  0.86851898  0.81449107    -0.21500
C710        C  0.02492405  0.87147366  0.80859112    -0.21500
C711        C  0.09872028  0.07714023  0.88493711    -0.22500
C712        C  0.09958380  0.01294031  0.87730389    -0.22500
C713        C  0.96490244  0.09412327  0.84813657    -0.22500
C714        C  0.96526041  0.02986470  0.84038818    -0.22500
C715        C  0.07145712  0.16466450  0.87185589    -0.17900
C716        C  0.99322109  0.17537094  0.85194734    -0.17900
C717        C  0.99457219  0.94788051  0.82555355    -0.17900
C718        C  0.07391640  0.93762520  0.84617458    -0.17900
H719        H  0.05567890  0.28610125  0.84541390     0.15000
H720        H  0.01296661  0.29218105  0.83530290     0.15000
H721        H  0.05667444  0.82679736  0.80762691     0.15000
H722        H  0.01625730  0.83235580  0.79647565     0.15000
H723        H  0.11182036  0.10420750  0.89704022     0.13300
H724        H  0.11356440  0.98158289  0.88252310     0.13300
H725        H  0.95053113  0.12412896  0.85314909     0.13300
H726        H  0.95110084  0.00115890  0.83824717     0.13300
H727        H  0.03136809  0.10599771  0.87191914     0.26600
H728        H  0.03274575  0.00223410  0.85539970     0.26600
N729        N  0.03406222  0.46359855  0.87880744    -0.36200
N730        N  0.06826626  0.55558760  0.88059592    -0.56800
N731        N  0.03479643  0.65519858  0.86820846    -0.36200
N732        N  0.00052497  0.56369117  0.86935698    -0.56800
C733        C  0.05131659  0.42735789  0.89149278     0.27400
C734        C  0.01592597  0.43148728  0.88657438     0.27400
C735        C  0.05240407  0.69058824  0.87476963     0.27400
C736        C  0.01698947  0.69490471  0.86803995     0.27400
C737        C  0.08091351  0.50180058  0.87890510     0.36000
C738        C  0.08136006  0.60427887  0.87352259     0.36000
C739        C  0.98792191  0.51279493  0.86493653     0.36000
C740        C  0.98841114  0.61515982  0.85775894     0.36000
C741        C  0.04398742  0.37169177  0.90714687    -0.21500
C742        C  0.02193264  0.37408641  0.90393753    -0.21500
C743        C  0.04562734  0.75341255  0.87968203    -0.21500
C744        C  0.02331025  0.75614620  0.87535459    -0.21500
C745        C  0.10232037  0.51652477  0.87206509    -0.22500
C746        C  0.10258020  0.58133613  0.86833784    -0.22500
C747        C  0.96738989  0.53241799  0.85170355    -0.22500
C748        C  0.96777433  0.59699345  0.84680066    -0.22500
C749        C  0.07354500  0.44035037  0.88645568    -0.17900
C750        C  0.99431420  0.44987892  0.87561075    -0.17900
C751        C  0.99555387  0.67839784  0.85755929    -0.17900
C752        C  0.07447939  0.66909864  0.87187535    -0.17900
H753        H  0.05328504  0.33145274  0.91852233     0.15000
H754        H  0.01196463  0.33557182  0.91237429     0.15000
H755        H  0.05580964  0.79338359  0.88482051     0.15000
H756        H  0.01292956  0.79856873  0.87661254     0.15000
H757        H  0.11631766  0.48414468  0.87014802     0.13300
H758        H  0.11680610  0.60844057  0.86270831     0.13300
H759        H  0.95348146  0.50361964  0.84635501     0.13300
H760        H  0.95427638  0.62715439  0.83686225     0.13300
H761        H  0.03481590  0.50379488  0.86137198     0.26600
H762        H  0.03523375  0.60849946  0.85832446     0.26600
O763        O  0.10375257  0.74121983  0.88312586    -0.74000
O764        O  0.14591615  0.85549422  0.84157176    -0.74000
O765        O  0.10383349  0.86963369  0.87031585    -0.74100
O766        O  0.14566441  0.73140472  0.85538751    -0.74600
O767        O  0.13207296  0.71382352  0.79521524    -0.74100
O768        O  0.09226878  0.85549744  0.80857545    -0.74100
O769        O  0.13274888  0.83673061  0.78130851    -0.74000
O770        O  0.09061323  0.72882900  0.82202295    -0.74100
Ni771      Ni  0.12509818  0.80014100  0.86506440     1.25400
Ni772      Ni  0.11131737  0.78315554  0.79994175     1.25400
C773        C  0.09042366  0.71569300  0.85880323     0.88200
C774        C  0.14701109  0.86104878  0.80377145     0.88100
C775        C  0.09110240  0.88563823  0.84156935     0.88100
C776        C  0.14681738  0.70359928  0.82160041     0.88300
C777        C  0.76767971  0.47524270  0.63828115     0.86900
C778        C  0.75599942  0.53126065  0.61802407    -0.53300
C779        C  0.76898495  0.56977454  0.59750688     0.09800
C780        C  0.79345480  0.55214808  0.60337168     0.20800
C781        C  0.78200421  0.44355403  0.60502335    -0.54100
C782        C  0.79589490  0.48435872  0.58725221     0.09900
C783        C  0.78436800  0.50405331  0.66599565    -0.53600
C784        C  0.79796246  0.54394937  0.64806922     0.10500
H785        H  0.73842856  0.53260056  0.61380000     0.15000
H786        H  0.80435445  0.58661306  0.58996956     0.00800
H787        H  0.78131300  0.39454000  0.59599075     0.15300
H788        H  0.78618944  0.49083067  0.69686382     0.15100
C789        C  0.79490836  0.05770852  0.52458317     0.86900
C790        C  0.78285367  0.00591173  0.50209531    -0.53300
C791        C  0.77544819  0.95894779  0.52518852     0.09800
C792        C  0.78183700  0.96618262  0.56903042     0.20800
C793        C  0.77861741  0.07976115  0.55711342    -0.54100
C794        C  0.77173643  0.03144013  0.58063270     0.09900
C795        C  0.81306977  0.02189756  0.54669211    -0.53600
C796        C  0.80657910  0.97457277  0.57015795     0.10500
H797        H  0.77609127  0.01200851  0.47268728     0.15000
H798        H  0.77685465  0.92612240  0.58751272     0.00800
H799        H  0.77218720  0.12810848  0.55936083     0.15300
H800        H  0.82978420  0.03668145  0.54606686     0.15100
O801        O  0.64372194  0.23367163  0.80239021    -0.74000
O802        O  0.60336833  0.10758986  0.83171995    -0.74000
O803        O  0.64260963  0.10899105  0.79309562    -0.74100
O804        O  0.60476848  0.23746316  0.84075294    -0.74200
O805        O  0.58742108  0.24906668  0.78302131    -0.74100
O806        O  0.62543220  0.12340842  0.73562142    -0.74100
O807        O  0.58706235  0.11962684  0.77318041    -0.74000
O808        O  0.62637233  0.24763450  0.74501147    -0.74100
Ni809      Ni  0.62403727  0.17131777  0.81928642     1.25400
Ni810      Ni  0.60573907  0.18540593  0.75747049     1.25400
C811        C  0.64275106  0.25724074  0.76760205     0.88200
C812        C  0.58865572  0.09200302  0.80677159     0.88100
C813        C  0.64149378  0.09998168  0.75556128     0.88100
C814        C  0.59025212  0.26584474  0.81915897     0.88300
O815        O  0.60220614  0.74611082  0.83573627    -0.74000
O816        O  0.64752193  0.63034725  0.87202772    -0.74000
O817        O  0.60607898  0.61565071  0.84204435    -0.74100
O818        O  0.64307979  0.75545706  0.86687503    -0.74200
O819        O  0.62787096  0.76358853  0.92624917    -0.74100
O820        O  0.59509979  0.61871358  0.90459473    -0.74100
O821        O  0.63480690  0.63987355  0.93351537    -0.74000
O822        O  0.58773304  0.74766331  0.89599616    -0.74100
Ni823      Ni  0.62501990  0.68636450  0.85170601     1.25400
Ni824      Ni  0.61067500  0.69240893  0.91696467     1.25400
C825        C  0.58796849  0.76786007  0.86028943     0.88200
C826        C  0.64971743  0.62177670  0.90932433     0.88100
C827        C  0.59443744  0.59401495  0.87000796     0.88100
C828        C  0.64242763  0.77956562  0.90187295     0.88300
O829        O  0.42580627  0.75412372  0.88293423    -0.74000
O830        O  0.46683068  0.61945830  0.85972147    -0.74000
O831        O  0.42769911  0.63207370  0.90003208    -0.74100
O832        O  0.46472087  0.74797993  0.84479490    -0.74200
O833        O  0.48118248  0.76760279  0.90228939    -0.74100
O834        O  0.44671009  0.64960023  0.95492721    -0.74100
O835        O  0.48418670  0.63946214  0.91604699    -0.74000
O836        O  0.44216968  0.77165321  0.94080053    -0.74100
Ni837      Ni  0.44587451  0.68744172  0.86949001     1.25400
Ni838      Ni  0.46443786  0.70798928  0.93009091     1.25400
C839        C  0.42545530  0.77694473  0.91802203     0.88200
C840        C  0.48217031  0.60629083  0.88438833     0.88100
C841        C  0.42996790  0.62794692  0.93789274     0.88100
C842        C  0.47853869  0.77882314  0.86544736     0.88300
C843        C  0.29508717  0.90131627  0.56380745     0.86900
C844        C  0.31084295  0.94369571  0.58560783    -0.53300
C845        C  0.30149031  0.99451969  0.60461416     0.09800
C846        C  0.27660765  0.00027273  0.59872046     0.20800
C847        C  0.27807335  0.88480621  0.59517845    -0.54100
C848        C  0.26813624  0.93685897  0.61343388     0.09900
C849        C  0.28288784  0.94743664  0.53574933    -0.53600
C850        C  0.27269103  0.99768129  0.55366706     0.10500
H851        H  0.32824256  0.93315793  0.58695951     0.15000
H852        H  0.26959088  0.04351501  0.61303691     0.00800
H853        H  0.27410689  0.83640942  0.60172572     0.15300
H854        H  0.28039089  0.93997844  0.50441339     0.15100
O855        O  0.47592174  0.13985551  0.78438671    -0.74000
O856        O  0.44032825  0.29170891  0.77206309    -0.74000
O857        O  0.48127556  0.26595267  0.80022935    -0.74100
O858        O  0.43622643  0.17016893  0.75535095    -0.74200
O859        O  0.42221600  0.15373806  0.81486624    -0.74100
O860        O  0.46750231  0.25545526  0.86053898    -0.74100
O861        O  0.42623540  0.27598778  0.83155483    -0.74000
O862        O  0.46352459  0.12741282  0.84536683    -0.74100
Ni863      Ni  0.45914000  0.21721211  0.77618725     1.25400
Ni864      Ni  0.44458181  0.20228286  0.84049610     1.25400
C865        C  0.47592310  0.10884660  0.81690395     0.88200
C866        C  0.42576335  0.30437332  0.79823415     0.88100
C867        C  0.48139740  0.27929600  0.83714153     0.88100
C868        C  0.42082905  0.15166016  0.77688951     0.88300
C869        C  0.26837433  0.49798081  0.60112343     0.86900
C870        C  0.28385488  0.54287527  0.58090460    -0.53300
C871        C  0.29792201  0.57220472  0.60579980     0.09800
C872        C  0.29402249  0.55766667  0.64988083     0.20800
C873        C  0.28305064  0.45374707  0.62646773    -0.54100
C874        C  0.29642890  0.48478057  0.65192543     0.09900
C875        C  0.25651910  0.54193168  0.63071412    -0.53600
C876        C  0.26951288  0.57359784  0.65645857     0.10500
H877        H  0.28464857  0.54900923  0.54924988     0.15000
H878        H  0.30511816  0.58277747  0.67012692     0.00800
H879        H  0.28318471  0.40250363  0.62385803     0.15300
H880        H  0.23894311  0.54824955  0.63114686     0.15100
N881        N  0.53232229  0.84159119  0.84484861    -0.36200
N882        N  0.56627499  0.93185430  0.83181154    -0.56800
N883        N  0.53216311  0.03040259  0.82161995    -0.36200
N884        N  0.49793291  0.93924927  0.83232350    -0.56800
C885        C  0.55009190  0.80217252  0.84131509     0.27400
C886        C  0.51459945  0.80594262  0.84028113     0.27400
C887        C  0.54989863  0.06307982  0.81144290     0.27400
C888        C  0.51426106  0.06790697  0.81376081     0.27400
C889        C  0.57898112  0.88168996  0.84369715     0.36000
C890        C  0.57918462  0.98236724  0.82955269     0.36000
C891        C  0.48568822  0.89143187  0.84519654     0.36000
C892        C  0.48540678  0.99351313  0.83396595     0.36000
C893        C  0.54361446  0.74129705  0.83348895    -0.21500
C894        C  0.52121813  0.74353022  0.83308770    -0.21500
C895        C  0.54300849  0.12206231  0.79759928    -0.21500
C896        C  0.52096606  0.12524172  0.79924234    -0.21500
C897        C  0.60021245  0.90025075  0.84858800    -0.22500
C898        C  0.60040418  0.96358609  0.83918631    -0.22500
C899        C  0.46503496  0.91521171  0.85439532    -0.22500
C900        C  0.46477860  0.97951146  0.84692949    -0.22500
C901        C  0.57190291  0.81875520  0.84789270    -0.17900
C902        C  0.49282182  0.82653547  0.84752790    -0.17900
C903        C  0.49218082  0.05455431  0.82209674    -0.17900
C904        C  0.57219299  0.04404695  0.81688742    -0.17900
H905        H  0.55400971  0.69954132  0.82886067     0.15000
H906        H  0.51093523  0.70352754  0.82882527     0.15000
H907        H  0.55251756  0.16150712  0.78903106     0.15000
H908        H  0.51155066  0.16767208  0.79217332     0.15000
H909        H  0.61422646  0.87100040  0.85716363     0.13300
H910        H  0.61464930  0.99205809  0.83934895     0.13300
H911        H  0.45149917  0.88890216  0.86497484     0.13300
H912        H  0.45094273  0.01198419  0.85075519     0.13300
H913        H  0.53227797  0.88756175  0.85579868     0.26600
H914        H  0.53229748  0.98800217  0.83649201     0.26600
N915        N  0.53791133  0.53006373  0.86710617    -0.36200
N916        N  0.57136349  0.43187460  0.85106169    -0.56800
N917        N  0.53677857  0.34099579  0.84605465    -0.36200
N918        N  0.50362612  0.43861478  0.86427725    -0.56800
C919        C  0.55618877  0.56231375  0.87462520     0.27400
C920        C  0.52075027  0.56620605  0.88060564     0.27400
C921        C  0.55474363  0.30205075  0.84743353     0.27400
C922        C  0.51947929  0.30558159  0.85439138     0.27400
C923        C  0.58406577  0.48289689  0.84916328     0.36000
C924        C  0.58315249  0.38120335  0.83700270     0.36000
C925        C  0.49095143  0.49244113  0.86512584     0.36000
C926        C  0.49055085  0.39063259  0.85446921     0.36000
C927        C  0.55025815  0.61951775  0.89271817    -0.21500
C928        C  0.52835474  0.62203252  0.89630088    -0.21500
C929        C  0.54883819  0.24176085  0.85773229    -0.21500
C930        C  0.52655861  0.24396244  0.86198180    -0.21500
C931        C  0.60434720  0.46414809  0.83466855    -0.22500
C932        C  0.60369048  0.39996948  0.82655322    -0.22500
C933        C  0.46953408  0.47794761  0.85692626    -0.22500
C934        C  0.46935400  0.41378754  0.84975829    -0.22500
C935        C  0.57785929  0.54476960  0.86298340    -0.17900
C936        C  0.49834825  0.55326684  0.87599288    -0.17900
C937        C  0.49738666  0.32596980  0.85124972    -0.17900
C938        C  0.57591364  0.31794059  0.83579728    -0.17900
H939        H  0.56003285  0.65879470  0.90084117     0.15000
H940        H  0.51960582  0.66334591  0.90753608     0.15000
H941        H  0.55948334  0.20020861  0.86109793     0.15000
H942        H  0.51661166  0.20453347  0.86920802     0.15000
H943        H  0.61820994  0.49339083  0.83055210     0.13300
H944        H  0.61696233  0.37031589  0.81512892     0.13300
H945        H  0.45532914  0.50955520  0.85647904     0.13300
H946        H  0.45514189  0.38714931  0.84267868     0.13300
H947        H  0.53696278  0.48960049  0.84965442     0.26600
H948        H  0.53600680  0.38624239  0.83415370     0.26600
O949        O  0.93406475  0.24474466  0.92285095    -0.74000
O950        O  0.97580332  0.37203726  0.91154059    -0.74000
O951        O  0.93447784  0.36909586  0.93462572    -0.74100
O952        O  0.97627877  0.24339667  0.89987401    -0.74200
O953        O  0.96546709  0.25640242  0.83729228    -0.74100
O954        O  0.92347306  0.38528349  0.87239074    -0.74100
O955        O  0.96598379  0.38609243  0.84860709    -0.74000
O956        O  0.92309275  0.26063103  0.86068001    -0.74100
Ni957      Ni  0.95574782  0.30665258  0.91919568     1.25400
Ni958      Ni  0.94432701  0.32270409  0.85229135     1.25400
C959        C  0.92037612  0.23632929  0.89474703     0.88200
C960        C  0.97764062  0.40083950  0.87863651     0.88100
C961        C  0.92130174  0.39499880  0.90973578     0.88100
C962        C  0.97736202  0.22739571  0.86331791     0.88300
O963        O  0.98364535  0.73873694  0.80234187    -0.74000
O964        O  0.94339961  0.84569402  0.74649333    -0.74000
O965        O  0.98092637  0.86493786  0.78463193    -0.74100
O966        O  0.94496151  0.72360505  0.76458831    -0.74200
O967        O  0.92712448  0.74538626  0.82031908    -0.74100
O968        O  0.96391679  0.88471468  0.84147975    -0.74100
O969        O  0.92490611  0.86733175  0.80168617    -0.74000
O970        O  0.96589950  0.75738963  0.85876708    -0.74100
Ni971      Ni  0.96404294  0.79268253  0.77284563     1.25400
Ni972      Ni  0.94500427  0.81490531  0.83283828     1.25400
C973        C  0.98105948  0.72805904  0.83911888     0.88200
C974        C  0.92636755  0.86768355  0.76376206     0.88100
C975        C  0.97866645  0.89766347  0.81652042     0.88100
C976        C  0.92878313  0.71513725  0.78749397     0.88300
C977        C  0.33067590  0.44483318  0.74166504    -0.01600
C978        C  0.34987737  0.41874432  0.72450072     0.07000
C979        C  0.35004137  0.40565929  0.68365731    -0.07600
C980        C  0.33196134  0.42168414  0.65974258     0.04400
C981        C  0.31351279  0.45267191  0.67659637    -0.14800
C982        C  0.31267087  0.46066165  0.71765319    -0.08100
C983        C  0.36924425  0.39939497  0.74885886     0.05400
C984        C  0.36701210  0.35196593  0.77700260    -0.09200
C985        C  0.38516353  0.32483048  0.79638278     0.00400
C986        C  0.40634805  0.34464712  0.78734910     0.00200
C987        C  0.40843992  0.39522292  0.76104978    -0.12800
C988        C  0.39007216  0.42306607  0.74215555     0.00700
C989        C  0.38148777  0.27214431  0.82214622     0.40000
C990        C  0.39294599  0.47543425  0.71579447     0.36600
C991        C  0.32928932  0.45789947  0.78356376     0.36400
C992        C  0.33288627  0.40720864  0.61797385     0.37100
N993        N  0.37833865  0.22984289  0.84259108    -0.43700
N994        N  0.39521236  0.51785039  0.69497912    -0.44100
N995        N  0.33351549  0.39534472  0.58452261    -0.41500
N996        N  0.32810790  0.46856558  0.81711754    -0.42900
H997        H  0.29789053  0.47983838  0.73087452     0.13200
H998        H  0.36434356  0.38284852  0.67046454     0.09700
H999        H  0.35107098  0.33348082  0.78224719     0.10800
H1000       H  0.42450243  0.41114885  0.75397009     0.16600
C1001       C  0.37136521  0.06243926  0.74383549    -0.01600
C1002       C  0.36424609  0.09919395  0.71110885     0.07000
C1003       C  0.37448621  0.15533033  0.70290546    -0.07600
C1004       C  0.39263685  0.17296213  0.72442342     0.04400
C1005       C  0.40054916  0.13504466  0.75626409    -0.14800
C1006       C  0.38928558  0.08116746  0.76660769    -0.08100
C1007       C  0.34729426  0.07853981  0.68293562     0.05400
C1008       C  0.32602026  0.07083970  0.69607769    -0.09200
C1009       C  0.30996793  0.04855041  0.67039617     0.00400
C1010       C  0.31512064  0.03479277  0.63043561     0.00200
C1011       C  0.33597459  0.04828192  0.61675688    -0.12800
C1012       C  0.35213852  0.06814678  0.64262839     0.00700
C1013       C  0.28899303  0.03710345  0.68700099     0.40000
C1014       C  0.37395293  0.07291857  0.62757089     0.36600
C1015       C  0.36134948  0.00376147  0.75311789     0.36400
C1016       C  0.40297853  0.22970341  0.71194296     0.37100
N1017       N  0.27241154  0.02916970  0.70173683    -0.43700
N1018       N  0.39142739  0.07629197  0.61549337    -0.44100
N1019       N  0.41106450  0.27472806  0.70077063    -0.41500
N1020       N  0.35329427  0.95667652  0.76043096    -0.42900
H1021       H  0.39510809  0.05216316  0.79106346     0.13200
H1022       H  0.36877097  0.18426300  0.67828224     0.09700
H1023       H  0.32213502  0.08048395  0.72683520     0.10800
H1024       H  0.34013491  0.03892395  0.58607765     0.16600
C1025       C  0.39552473  0.62757010  0.02963917    -0.01600
C1026       C  0.37600055  0.60195663  0.01636058     0.07000
C1027       C  0.37476924  0.57860797  0.97730536    -0.07600
C1028       C  0.39246123  0.58236720  0.95122089     0.04400
C1029       C  0.41203350  0.60875662  0.96448004    -0.14800
C1030       C  0.41328743  0.62915377  0.00433577    -0.08100
C1031       C  0.35655791  0.60055225  0.54294195     0.05400
C1032       C  0.33764215  0.63557273  0.03186383    -0.09200
C1033       C  0.31869101  0.63295068  0.55513165     0.00400
C1034       C  0.31859196  0.59516371  0.58939654     0.00200
C1035       C  0.33819345  0.56577303  0.60211925    -0.12800
C1036       C  0.35690496  0.56659370  0.57877783     0.00700
C1037       C  0.29943132  0.66850181  0.54243188     0.40000
C1038       C  0.37570893  0.52835616  0.59076700     0.36600
C1039       C  0.39735955  0.65658927  0.06831563     0.36400
C1040       C  0.38989576  0.55979706  0.91115605     0.37100
N1041       N  0.28399457  0.69692483  0.03174061    -0.43700
N1042       N  0.39076278  0.49758464  0.60028469    -0.44100
N1043       N  0.38774909  0.54156743  0.87905246    -0.41500
N1044       N  0.39886004  0.67995019  0.09923491    -0.42900
H1045       H  0.42782403  0.65078874  0.01555112     0.13200
H1046       H  0.35975459  0.55865779  0.96692651     0.09700
H1047       H  0.33742299  0.66354022  0.00523251     0.10800
H1048       H  0.33851824  0.53791307  0.62877130     0.16600
C1049       C  0.32379850  0.82090958  0.97922393    -0.01600
C1050       C  0.34331762  0.80162943  0.49866924     0.07000
C1051       C  0.34337059  0.79398290  0.53990387    -0.07600
C1052       C  0.32522938  0.81388287  0.56230136     0.04400
C1053       C  0.30734608  0.84538207  0.54334486    -0.14800
C1054       C  0.30546342  0.83708263  0.50209588    -0.08100
C1055       C  0.36431949  0.79719551  0.97680174     0.05400
C1056       C  0.38126997  0.83669122  0.98812928    -0.09200
C1057       C  0.40115103  0.83460635  0.96796980     0.00400
C1058       C  0.40397859  0.79401776  0.93504548     0.00200
C1059       C  0.38673213  0.75593427  0.92325969    -0.12800
C1060       C  0.36736959  0.75578228  0.94434883     0.00700
C1061       C  0.41841450  0.87378615  0.98175240     0.40000
C1062       C  0.35148667  0.71005536  0.93328328     0.36600
C1063       C  0.32242693  0.82955949  0.93691676     0.36400
C1064       C  0.32613134  0.80690087  0.60472292     0.37100
N1065       N  0.43234908  0.90491243  0.99275740    -0.43700
N1066       N  0.33885582  0.67326841  0.92422099    -0.44100
N1067       N  0.32684377  0.80102300  0.63870946    -0.41500
N1068       N  0.32125315  0.83661531  0.90304979    -0.42900
H1069       H  0.29054995  0.84972221  0.48662113     0.13200
H1070       H  0.35798127  0.77587045  0.55471322     0.09700
H1071       H  0.37900562  0.86887507  0.01302165     0.10800
H1072       H  0.38892300  0.72216302  0.89915720     0.16600
C1073       C  0.71736607  0.95347890  0.49097563    -0.01600
C1074       C  0.71649520  0.89108185  0.97593457     0.07000
C1075       C  0.73436986  0.84904994  0.48053003    -0.07600
C1076       C  0.75353010  0.86872705  0.49888295     0.04400
C1077       C  0.75469885  0.93141434  0.51269367    -0.14800
C1078       C  0.73638674  0.97279940  0.50927232    -0.08100
C1079       C  0.69668438  0.86933889  0.95573290     0.05400
C1080       C  0.69725624  0.85567283  0.91510487    -0.09200
C1081       C  0.67912803  0.83140709  0.89558145     0.00400
C1082       C  0.65996564  0.82024269  0.91708698     0.00200
C1083       C  0.65921534  0.83816742  0.95736274    -0.12800
C1084       C  0.67736920  0.86149595  0.97676184     0.00700
C1085       C  0.68107275  0.81668192  0.85398309     0.40000
C1086       C  0.67592992  0.87393081  0.51867187     0.36600
C1087       C  0.69984358  0.99937290  0.98549690     0.36400
C1088       C  0.77192123  0.82472891  0.50227979     0.37100
N1089       N  0.68268815  0.80499077  0.82061451    -0.43700
N1090       N  0.67500672  0.88347462  0.55236754    -0.44100
N1091       N  0.78666276  0.78941235  0.50512502    -0.41500
N1092       N  0.68566497  0.03636609  0.98162699    -0.42900
H1093       H  0.73730568  0.02138912  0.51954231     0.13200
H1094       H  0.73333997  0.80003863  0.97059126     0.09700
H1095       H  0.71208543  0.86278350  0.89880792     0.10800
H1096       H  0.64480299  0.83046219  0.97469716     0.16600
C1097       C  0.72094747  0.99046401  0.63640020    -0.01600
C1098       C  0.71730366  0.04358048  0.66100177     0.07000
C1099       C  0.73229475  0.09203866  0.66112046    -0.07600
C1100       C  0.75033714  0.08934012  0.63583294     0.04400
C1101       C  0.75350823  0.03725956  0.60966654    -0.14800
C1102       C  0.73874698  0.98786605  0.61102979    -0.08100
C1103       C  0.69743527  0.05034513  0.68550852     0.05400
C1104       C  0.69927032  0.04885236  0.72681863    -0.09200
C1105       C  0.68089252  0.05818840  0.75082410     0.00400
C1106       C  0.66015747  0.07047335  0.73330107     0.00200
C1107       C  0.65837284  0.06752501  0.69173138    -0.12800
C1108       C  0.67670247  0.05834095  0.66793095     0.00700
C1109       C  0.68408838  0.05652201  0.79313401     0.40000
C1110       C  0.67393892  0.06069535  0.62546187     0.36600
C1111       C  0.70661083  0.93786579  0.63690930     0.36400
C1112       C  0.76546957  0.13971415  0.63851632     0.37100
N1113       N  0.68673674  0.05479240  0.82703476    -0.43700
N1114       N  0.67173960  0.06234636  0.59145716    -0.44100
N1115       N  0.77733109  0.18075748  0.64132914    -0.41500
N1116       N  0.69501907  0.89601134  0.63763452    -0.42900
H1117       H  0.74069027  0.94708661  0.59170238     0.13200
H1118       H  0.72971110  0.13248297  0.68069051     0.09700
H1119       H  0.71518908  0.04126440  0.74032957     0.10800
H1120       H  0.64273927  0.07625030  0.67739231     0.16600
C1121       C  0.87527747  0.94984378  0.72141883    -0.01600
C1122       C  0.87052183  0.90863458  0.68955634     0.07000
C1123       C  0.88415225  0.85549555  0.68275267    -0.07600
C1124       C  0.90249430  0.84329774  0.70587217     0.04400
C1125       C  0.90728715  0.88350209  0.73835118    -0.14800
C1126       C  0.89327825  0.93596783  0.74631707    -0.08100
C1127       C  0.85314025  0.92192212  0.65968987     0.05400
C1128       C  0.85929563  0.92258790  0.61981799    -0.09200
C1129       C  0.84396733  0.93223564  0.58980686     0.00400
C1130       C  0.82193712  0.94551195  0.59947285     0.00200
C1131       C  0.81548139  0.94112655  0.63913103    -0.12800
C1132       C  0.83084724  0.92823641  0.66916254     0.00700
C1133       C  0.85142533  0.92842119  0.54936836     0.40000
C1134       C  0.82332195  0.92050593  0.70909800     0.36600
C1135       C  0.86284504  0.00827487  0.72752148     0.36400
C1136       C  0.91608424  0.78901976  0.69452267     0.37100
N1137       N  0.85754274  0.92562547  0.51708761    -0.43700
N1138       N  0.81725546  0.91400902  0.74107866    -0.44100
N1139       N  0.92688354  0.74614905  0.68417839    -0.41500
N1140       N  0.85288693  0.05523187  0.73216361    -0.42900
H1141       H  0.89685873  0.96726376  0.77087958     0.13200
H1142       H  0.88071778  0.82389128  0.65819838     0.09700
H1143       H  0.87629399  0.91531754  0.61202638     0.10800
H1144       H  0.79858643  0.95020790  0.64695277     0.16600
C1145       C  0.87952522  0.15002849  0.95370854    -0.01600
C1146       C  0.85979067  0.17514015  0.93776695     0.07000
C1147       C  0.86018895  0.21103889  0.90320369    -0.07600
C1148       C  0.87990940  0.22488132  0.88553593     0.04400
C1149       C  0.89982552  0.20546756  0.90391675    -0.14800
C1150       C  0.89929618  0.16624423  0.93718868    -0.08100
C1151       C  0.83869155  0.16236852  0.95641060     0.05400
C1152       C  0.83496378  0.18119955  0.49560265    -0.09200
C1153       C  0.81837985  0.15460067  0.51737621     0.00400
C1154       C  0.80497259  0.10909774  0.49936036     0.00200
C1155       C  0.80612169  0.10189790  0.45777201    -0.12800
C1156       C  0.82291120  0.12766717  0.43632236     0.00700
C1157       C  0.81780665  0.16762654  0.55932348     0.40000
C1158       C  0.82492469  0.11101554  0.89518747     0.36600
C1159       C  0.87949220  0.10860164  0.48697559     0.36400
C1160       C  0.87898378  0.26128393  0.84956917     0.37100
N1161       N  0.81777131  0.17760721  0.59300477    -0.43700
N1162       N  0.82649388  0.09832392  0.86194829    -0.44100
N1163       N  0.87812388  0.29003704  0.82057653    -0.41500
N1164       N  0.87962129  0.07424441  0.51346599    -0.42900
H1165       H  0.91438748  0.14984676  0.95112395     0.13200
H1166       H  0.84502702  0.22909986  0.89029973     0.09700
H1167       H  0.84699653  0.20920437  0.01091238     0.10800
H1168       H  0.79560924  0.07126839  0.44160512     0.16600
C1169       C  0.72782992  0.34448372  0.66299160    -0.01600
C1170       C  0.71659906  0.37175377  0.69538279     0.07000
C1171       C  0.72256679  0.43046515  0.71006133    -0.07600
C1172       C  0.73909284  0.46345572  0.69234275     0.04400
C1173       C  0.75100187  0.43623715  0.66001013    -0.14800
C1174       C  0.74507330  0.37613443  0.64598260    -0.08100
C1175       C  0.69767784  0.34214370  0.71338461     0.05400
C1176       C  0.70046354  0.31059671  0.74934968    -0.09200
C1177       C  0.68281270  0.28414622  0.76825249     0.00400
C1178       C  0.66158850  0.29094522  0.75157792     0.00200
C1179       C  0.65897753  0.32350142  0.71555475    -0.12800
C1180       C  0.67679421  0.34851873  0.69635120     0.00700
C1181       C  0.68744143  0.24739839  0.80335125     0.40000
C1182       C  0.67338965  0.38011891  0.65898651     0.36600
C1183       C  0.72124321  0.28551401  0.64563026     0.36400
C1184       C  0.74252932  0.52683019  0.70692338     0.37100
N1185       N  0.69128168  0.21758400  0.83127310    -0.43700
N1186       N  0.67083336  0.40515812  0.62891012    -0.44100
N1187       N  0.74517979  0.57764288  0.71852957    -0.41500
N1188       N  0.71574426  0.23874488  0.63137473    -0.42900
H1189       H  0.75289606  0.35452263  0.62055257     0.13200
H1190       H  0.71358722  0.45186097  0.73456380     0.09700
H1191       H  0.71661158  0.30572346  0.76234167     0.10800
H1192       H  0.64303924  0.32833017  0.70178153     0.16600
C1193       C  0.70875598  0.63054070  0.93405227    -0.01600
C1194       C  0.70973021  0.59900130  0.97049376     0.07000
C1195       C  0.69196762  0.56440094  0.98273553    -0.07600
C1196       C  0.67265086  0.56515225  0.96064533     0.04400
C1197       C  0.67100422  0.60098444  0.92573203    -0.14800
C1198       C  0.68944728  0.63122508  0.91186925    -0.08100
C1199       C  0.72881695  0.60179891  0.49657720     0.05400
C1200       C  0.72984968  0.64952222  0.52560273    -0.09200
C1201       C  0.74498994  0.64434972  0.55682965     0.00400
C1202       C  0.75941425  0.59100898  0.55897030     0.00200
C1203       C  0.75936152  0.54646562  0.52770173    -0.12800
C1204       C  0.74427411  0.54985425  0.99719430     0.00700
C1205       C  0.74424099  0.69141837  0.58796251     0.40000
C1206       C  0.74354447  0.49951829  0.96810413     0.36600
C1207       C  0.72711031  0.66391492  0.91959956     0.36400
C1208       C  0.65455831  0.53010861  0.97465703     0.37100
N1209       N  0.74357090  0.72938685  0.61280887    -0.43700
N1210       N  0.74290082  0.45920390  0.94482000    -0.44100
N1211       N  0.64001580  0.50191070  0.98558497    -0.41500
N1212       N  0.74188435  0.69034824  0.90795007    -0.42900
H1213       H  0.68829431  0.65947815  0.88523432     0.13200
H1214       H  0.69301342  0.53832744  0.01023182     0.09700
H1215       H  0.71788205  0.68850825  0.52532267     0.10800
H1216       H  0.76940863  0.50366257  0.52917689     0.16600
C1217       C  0.84040438  0.64971637  0.69187144    -0.01600
C1218       C  0.85539861  0.60538474  0.70904126     0.07000
C1219       C  0.85159431  0.54071711  0.70527125    -0.07600
C1220       C  0.83318331  0.51985634  0.68521880     0.04400
C1221       C  0.81815939  0.56424279  0.66806822    -0.14800
C1222       C  0.82216165  0.62883715  0.67109384    -0.08100
C1223       C  0.87470648  0.62560131  0.73209810     0.05400
C1224       C  0.87139375  0.66219405  0.76634917    -0.09200
C1225       C  0.88889644  0.68738541  0.78705480     0.00400
C1226       C  0.91050926  0.67598308  0.77347596     0.00200
C1227       C  0.91382999  0.63488978  0.74094560    -0.12800
C1228       C  0.89620336  0.60978842  0.72028435     0.00700
C1229       C  0.88375683  0.72800382  0.82050375     0.40000
C1230       C  0.90055618  0.57073744  0.68581953     0.36600
C1231       C  0.84312604  0.71692306  0.69570447     0.36400
C1232       C  0.83018942  0.45251516  0.68280517     0.37100
N1233       N  0.87951553  0.76052593  0.84726037    -0.43700
N1234       N  0.90402700  0.53920484  0.65828475    -0.44100
N1235       N  0.82780039  0.39850661  0.68147325    -0.41500
N1236       N  0.84495420  0.77092107  0.69917856    -0.42900
H1237       H  0.81067860  0.66308772  0.65818217     0.13200
H1238       H  0.86288541  0.50641921  0.71866475     0.09700
H1239       H  0.85491078  0.67285681  0.77623839     0.10800
H1240       H  0.93019341  0.62497108  0.73026655     0.16600
C1241       C  0.83102323  0.50709951  0.99736006    -0.01600
C1242       C  0.84486210  0.45339025  0.49766598     0.07000
C1243       C  0.84127517  0.40537598  0.52504814    -0.07600
C1244       C  0.82475412  0.41240635  0.55339506     0.04400
C1245       C  0.81153924  0.46860579  0.55456594    -0.14800
C1246       C  0.81475282  0.51505599  0.52563698    -0.08100
C1247       C  0.86381881  0.44745014  0.97104653     0.05400
C1248       C  0.88359773  0.47107512  0.98428609    -0.09200
C1249       C  0.90250171  0.46190536  0.96186075     0.00400
C1250       C  0.90171101  0.42821262  0.92567131     0.00200
C1251       C  0.88144756  0.41048309  0.91070886    -0.12800
C1252       C  0.86256063  0.41933021  0.93327424     0.00700
C1253       C  0.92263012  0.48590980  0.97700763     0.40000
C1254       C  0.84231488  0.39642299  0.91803743     0.36600
C1255       C  0.83392133  0.55712463  0.96923149     0.36400
C1256       C  0.82265348  0.36280286  0.58197965     0.37100
N1257       N  0.93871612  0.50554779  0.98906093    -0.43700
N1258       N  0.82608685  0.37808237  0.90577394    -0.44100
N1259       N  0.82088430  0.32276099  0.60473662    -0.41500
N1260       N  0.83636379  0.59697218  0.94659100    -0.42900
H1261       H  0.80467561  0.55811777  0.52520235     0.13200
H1262       H  0.85184773  0.36315496  0.52499411     0.09700
H1263       H  0.88438280  0.49484825  0.01278360     0.10800
H1264       H  0.88062638  0.38478866  0.88293845     0.16600
C1265       C  0.23723436  0.87719297  0.70223745    -0.01600
C1266       C  0.21975651  0.92214128  0.70579825     0.07000
C1267       C  0.21898856  0.97378458  0.68012879    -0.07600
C1268       C  0.23370427  0.97840087  0.64911698     0.04400
C1269       C  0.25107522  0.93271145  0.64474566    -0.14800
C1270       C  0.25270054  0.88307773  0.67224023    -0.08100
C1271       C  0.20098442  0.91405839  0.73307873     0.05400
C1272       C  0.20440717  0.90280292  0.77370892    -0.09200
C1273       C  0.18695451  0.88995051  0.79883432     0.00400
C1274       C  0.16546318  0.89068644  0.78357662     0.00200
C1275       C  0.16206550  0.90759589  0.74383826    -0.12800
C1276       C  0.17936315  0.91718509  0.71849680     0.00700
C1277       C  0.19181984  0.87239393  0.83917555     0.40000
C1278       C  0.17427576  0.92561784  0.67700463     0.36600
C1279       C  0.23973231  0.82423508  0.72856792     0.36400
C1280       C  0.22932131  0.02954245  0.62193539     0.37100
N1281       N  0.19588941  0.85827644  0.87146472    -0.43700
N1282       N  0.17005542  0.93254781  0.64387305    -0.44100
N1283       N  0.22494661  0.07186495  0.60151958    -0.41500
N1284       N  0.24218564  0.78216366  0.74994542    -0.42900
H1285       H  0.26615223  0.84859513  0.67045515     0.13200
H1286       H  0.20604752  0.00973055  0.68328325     0.09700
H1287       H  0.22081906  0.90204399  0.78562111     0.10800
H1288       H  0.14572316  0.90888737  0.73149508     0.16600
C1289       C  0.22315862  0.66207285  0.70314390    -0.01600
C1290       C  0.22585717  0.64246751  0.74281542     0.07000
C1291       C  0.24663392  0.62047224  0.75528894    -0.07600
C1292       C  0.26349836  0.61017754  0.72780827     0.04400
C1293       C  0.25902364  0.61630263  0.68701701    -0.14800
C1294       C  0.23970699  0.64934656  0.67586539    -0.08100
C1295       C  0.20692248  0.64397340  0.77032571     0.05400
C1296       C  0.18783391  0.61457510  0.75804982    -0.09200
C1297       C  0.16805763  0.62677372  0.77742894     0.00400
C1298       C  0.16720632  0.66842887  0.81025095     0.00200
C1299       C  0.18689469  0.68983442  0.82601778    -0.12800
C1300       C  0.20665085  0.67830142  0.80631957     0.00700
C1301       C  0.14874756  0.59852000  0.76181274     0.40000
C1302       C  0.22589572  0.70639109  0.82224895     0.36600
C1303       C  0.20328126  0.69329625  0.68924752     0.36400
C1304       C  0.28531297  0.59946709  0.74249158     0.37100
N1305       N  0.13330242  0.57576420  0.74924607    -0.43700
N1306       N  0.24127481  0.72871453  0.83541690    -0.44100
N1307       N  0.30280982  0.59428145  0.75515504    -0.41500
N1308       N  0.18737430  0.71820693  0.67800490    -0.42900
H1309       H  0.23665015  0.65957604  0.64488002     0.13200
H1310       H  0.24962161  0.61003991  0.78621535     0.09700
H1311       H  0.18810366  0.58523003  0.73157644     0.10800
H1312       H  0.18664992  0.72098302  0.85165870     0.16600
C1313       C  0.20190682  0.36047890  0.96793505    -0.01600
C1314       C  0.20165706  0.41498301  0.99225998     0.07000
C1315       C  0.18370205  0.45813615  0.99046860    -0.07600
C1316       C  0.16548328  0.44509805  0.96710422     0.04400
C1317       C  0.16518687  0.38819769  0.94541124    -0.14800
C1318       C  0.18370064  0.34755710  0.94480354    -0.08100
C1319       C  0.21940966  0.42659380  0.52103452     0.05400
C1320       C  0.24074223  0.43322034  0.00700963    -0.09200
C1321       C  0.25748651  0.44847602  0.53322870     0.00400
C1322       C  0.25283407  0.46291814  0.57345468     0.00200
C1323       C  0.23226981  0.44686050  0.58777687    -0.12800
C1324       C  0.21559067  0.42968833  0.56202820     0.00700
C1325       C  0.27937177  0.44425240  0.51808467     0.40000
C1326       C  0.19474362  0.41506178  0.57840071     0.36600
C1327       C  0.22012512  0.31547901  0.96773500     0.36400
C1328       C  0.14745077  0.49066306  0.96520980     0.37100
N1329       N  0.29687881  0.44067551  0.50574104    -0.43700
N1330       N  0.17808214  0.40310459  0.59155952    -0.44100
N1331       N  0.13313041  0.52756939  0.96304346    -0.41500
N1332       N  0.23488796  0.27992338  0.46732501    -0.42900
H1333       H  0.18340767  0.30351008  0.92813120     0.13200
H1334       H  0.18375212  0.50124845  0.00806399     0.09700
H1335       H  0.24414557  0.42640235  0.97580454     0.10800
H1336       H  0.22889720  0.44945683  0.61916466     0.16600
C1337       C  0.21869857  0.00818038  0.00084592    -0.01600
C1338       C  0.21713168  0.07055270  0.48863762     0.07000
C1339       C  0.23388257  0.11123519  0.49917795    -0.07600
C1340       C  0.25205914  0.08909682  0.52099356     0.04400
C1341       C  0.25328837  0.02584399  0.53347509    -0.14800
C1342       C  0.23651011  0.98531164  0.52314632    -0.08100
C1343       C  0.19756183  0.09805177  0.96790388     0.05400
C1344       C  0.17718498  0.09154696  0.98549362    -0.09200
C1345       C  0.15833888  0.11901162  0.96873523     0.00400
C1346       C  0.15976057  0.15633596  0.93438949     0.00200
C1347       C  0.17994486  0.15956755  0.91540121    -0.12800
C1348       C  0.19875458  0.13061798  0.93173458     0.00700
C1349       C  0.13783853  0.10834936  0.98771596     0.40000
C1350       C  0.21904107  0.13551598  0.91097031     0.36600
C1351       C  0.20256908  0.96344542  0.98932933     0.36400
C1352       C  0.26944785  0.13125557  0.52939232     0.37100
N1353       N  0.12143772  0.09944662  0.00289539    -0.43700
N1354       N  0.23523556  0.13955829  0.89412258    -0.44100
N1355       N  0.28349022  0.16483297  0.53595232    -0.41500
N1356       N  0.18963565  0.92768241  0.98007393    -0.42900
H1357       H  0.23759309  0.93613862  0.53218363     0.13200
H1358       H  0.23268806  0.16039876  0.49051477     0.09700
H1359       H  0.17604273  0.06605254  0.01307617     0.10800
H1360       H  0.18131117  0.18755306  0.88884872     0.16600
loop_ 
_geom_bond_atom_site_label_1 
_geom_bond_atom_site_label_2 
_geom_bond_distance 
_geom_bond_site_symmetry_2 
_ccdc_geom_bond_type 
O1           Ni9   1.908       .  S
O1           C11   1.279       .  A
O2           Ni9   1.925       .  S
O2           C12   1.282       .  A
O3           Ni9   1.900       .  S
O3           C13   1.278       .  A
O4           Ni9   1.903       .  S
O4           C14   1.278       .  A
O5          Ni10   1.936       .  S
O5           C14   1.284       .  A
O6          Ni10   1.923       .  S
O6           C13   1.283       .  A
O7          Ni10   1.924       .  S
O7           C12   1.281       .  A
O8          Ni10   1.912       .  S
O8           C11   1.279       .  A
Ni9         Ni10   2.390       .  S
C11         C637   1.462       .  S
C12          C35   1.485       .  S
C13         C666   1.481       .  S
C14          C69   1.487       .  S
N15          C20   1.354       .  A
N15          C19   1.353       .  A
N15          H47   1.040       .  S
N16          C23   1.354       .  A
N16          C24   1.356   1_545  A
N17          C22   1.359       .  A
N17          C21   1.362       .  A
N17          H48   1.036   1_565  S
N18          C25   1.358       .  A
N18          C26   1.356       .  A
C19          C27   1.386       .  A
C19          C35   1.412       .  A
C20          C36   1.411   1_455  A
C20          C28   1.384       .  A
C21          C29   1.387       .  A
C21          C38   1.429       .  A
C22          C37   1.428   1_455  A
C22          C30   1.389       .  A
C23          C35   1.420       .  A
C23          C31   1.386       .  A
C24          C38   1.424       .  A
C24          C32   1.388   1_565  A
C25          C33   1.384       .  A
C25          C36   1.422       .  A
C26          C34   1.389       .  A
C26          C37   1.427   1_545  A
C27          C28   1.375       .  A
C27          H39   1.082       .  S
C28          H40   1.083       .  S
C29          C30   1.357       .  A
C29          H41   1.077       .  S
C30          H42   1.077       .  S
C31          C32   1.379       .  A
C31          H43   1.082       .  S
C32          H44   1.081   1_545  S
C33          C34   1.381       .  A
C33          H45   1.083       .  S
C34          H46   1.081       .  S
C36         C282   1.493       .  S
C37         C295   1.498       .  S
C38          C95   1.505       .  S
N49          C54   1.355       .  A
N49          C53   1.355       .  A
N49          H81   1.042       .  S
N50          C57   1.355       .  A
N50          C58   1.354       .  A
N51          C56   1.355       .  A
N51          C55   1.355       .  A
N51          H82   1.040       .  S
N52          C59   1.356   1_455  A
N52          C60   1.355   1_455  A
C53          C61   1.386       .  A
C53          C69   1.416       .  A
C54          C70   1.419   1_455  A
C54          C62   1.389       .  A
C55          C63   1.386       .  A
C55          C72   1.420       .  A
C56          C71   1.418   1_455  A
C56          C64   1.385       .  A
C57          C69   1.417       .  A
C57          C65   1.386       .  A
C58          C72   1.421       .  A
C58          C66   1.388       .  A
C59          C67   1.387       .  A
C59          C70   1.421       .  A
C60          C68   1.387       .  A
C60          C71   1.422       .  A
C61          C62   1.359       .  A
C61          H73   1.079       .  S
C62          H74   1.078       .  S
C63          C64   1.379       .  A
C63          H75   1.082       .  S
C64          H76   1.082       .  S
C65          C66   1.378       .  A
C65          H77   1.082       .  S
C66          H78   1.082       .  S
C67          C68   1.377       .  A
C67          H79   1.082       .  S
C68          H80   1.081       .  S
C70         C280   1.489       .  S
C71         C293   1.489       .  S
C72          C93   1.487       .  S
O83         Ni91   1.947       .  S
O83          C93   1.287       .  A
O84         Ni91   1.944       .  S
O84          C94   1.287       .  A
O85         Ni91   1.939       .  S
O85          C95   1.284       .  A
O86         Ni91   1.919       .  S
O86          C96   1.282       .  A
O87         Ni92   1.914       .  S
O87          C96   1.282       .  A
O88         Ni92   1.914       .  S
O88          C95   1.281       .  A
O89         Ni92   1.884       .  S
O89          C94   1.276       .  A
O90         Ni92   1.906       .  S
O90          C93   1.277       .  A
Ni91        Ni92   2.383       .  S
C94         C594   1.489       .  S
C96         C618   1.486       .  S
C97          C98   1.527       .  S
C97         C103   1.525       .  S
C97         C101   1.565       .  S
C97         C493   1.534       .  S
C98         H105   1.089       .  S
C98          C99   1.359       .  D
C99         C100   1.549       .  S
C99         C522   1.492       .  S
C100        C104   1.545       .  S
C100        C102   1.532       .  S
C100        H106   1.110       .  S
C101        H107   1.080       .  S
C101        C102   1.380       .  D
C102        C565   1.497       .  S
C103        H108   1.087       .  S
C103        C104   1.358       .  D
C104        C541   1.486       .  S
C109        C110   1.538       .  S
C109        C115   1.521       .  S
C109        C113   1.551       .  S
C109        C474   1.537   1_554  S
C110        H117   1.082   1_554  S
C110        C111   1.362   1_545  D
C111        C112   1.539       .  S
C111        C397   1.480       .  S
C112        C116   1.539       .  S
C112        C114   1.541   1_565  S
C112        H118   1.110       .  S
C113        H119   1.084       .  S
C113        C114   1.380       .  D
C114        C421   1.498       .  S
C115        H120   1.086       .  S
C115        C116   1.355   1_545  D
C116        C450   1.485       .  S
O121       Ni129   1.915       .  S
O121        C131   1.281       .  A
O122       Ni129   1.937       .  S
O122        C132   1.283       .  A
O123       Ni129   1.927       .  S
O123        C133   1.284       .  A
O124       Ni129   1.940       .  S
O124        C134   1.284       .  A
O125       Ni130   1.926       .  S
O125        C134   1.282       .  A
O126       Ni130   1.901       .  S
O126        C133   1.279       .  A
O127       Ni130   1.916       .  S
O127        C132   1.283       .  A
O128       Ni130   1.912       .  S
O128        C131   1.281       .  A
Ni129      Ni130   2.382       .  S
C131        C498   1.491       .  S
C132        C224   1.502       .  S
C133        C426   1.493       .  S
C134        C258   1.494       .  S
O135       Ni143   1.931       .  S
O135        C145   1.282       .  A
O136       Ni143   1.915       .  S
O136        C146   1.281       .  A
O137       Ni143   1.952       .  S
O137        C147   1.287       .  A
O138       Ni143   1.932       .  S
O138        C148   1.285       .  A
O139       Ni144   1.894       .  S
O139        C148   1.278       .  A
O140       Ni144   1.901       .  S
O140        C147   1.278       .  A
O141       Ni144   1.905       .  S
O141        C146   1.279       .  A
O142       Ni144   1.933       .  S
O142        C145   1.284       .  A
Ni143      Ni144   2.383       .  S
C145        C221   1.494       .  S
C146        C517   1.472       .  S
C147        C255   1.500       .  S
C148        C402   1.491       .  S
O149       Ni157   1.894       .  S
O149        C159   1.277       .  A
O150       Ni157   1.923       .  S
O150        C160   1.279       .  A
O151       Ni157   1.955       .  S
O151        C161   1.290       .  A
O152       Ni157   1.955       .  S
O152        C162   1.289       .  A
O153       Ni158   1.914       .  S
O153        C162   1.278       .  A
O154       Ni158   1.884       .  S
O154        C161   1.275       .  A
O155       Ni158   1.916       .  S
O155        C160   1.283       .  A
O156       Ni158   1.919       .  S
O156        C159   1.283       .  A
Ni157      Ni158   2.383       .  S
C159        C378   1.476       .  S
C160        C256   1.498       .  S
C161        C349   1.498       .  S
C162        C222   1.497       .  S
C163        C164   1.526       .  S
C163        C169   1.538       .  S
C163        C167   1.546       .  S
C163        C373   1.541       .  S
C164        H171   1.086       .  S
C164        C165   1.359       .  D
C165        C166   1.543   1_565  S
C165        C330   1.490   1_565  S
C166        C170   1.541   1_545  S
C166        C168   1.543   1_545  S
C166        H172   1.106       .  S
C167        H173   1.085       .  S
C167        C168   1.382       .  D
C168        C589   1.501       .  S
C169        H174   1.081       .  S
C169        C170   1.355       .  D
C170        C661   1.479   1_565  S
O175       Ni183   1.923       .  S
O175        C185   1.284       .  A
O176       Ni183   1.925       .  S
O176        C186   1.283       .  A
O177       Ni183   1.911       .  S
O177        C187   1.278       .  A
O178       Ni183   1.885       .  S
O178        C188   1.274       .  A
O179       Ni184   1.941       .  S
O179        C188   1.287       .  A
O180       Ni184   1.949       .  S
O180        C187   1.287       .  A
O181       Ni184   1.915       .  S
O181        C186   1.280       .  A
O182       Ni184   1.939       .  S
O182        C185   1.283       .  A
Ni183      Ni184   2.385       .  S
C185        C223   1.505       .  S
C186        C306   1.487       .  S
C187        C257   1.491       .  S
C188        C325   1.477       .  S
C189        C190   1.537       .  S
C189        C195   1.530       .  S
C189        C193   1.538       .  S
C189        C642   1.539       .  S
C190        H197   1.081       .  S
C190        C191   1.365       .  D
C191        C192   1.546       .  S
C191        C354   1.489       .  S
C192        C196   1.550       .  S
C192        C194   1.545       .  S
C192        H198   1.109       .  S
C193        H199   1.086       .  S
C193        C194   1.368       .  D
C194        C301   1.486       .  S
C195        H200   1.085       .  S
C195        C196   1.366       .  D
C196        C613   1.500       .  S
N201        C206   1.355       .  A
N201        C205   1.355       .  A
N201        H233   1.037       .  S
N202        C209   1.356       .  A
N202        C210   1.357       .  A
N203        C208   1.359       .  A
N203        C207   1.361       .  A
N203        H234   1.031   1_545  S
N204        C211   1.359       .  A
N204        C212   1.359       .  A
C205        C213   1.384       .  A
C205        C221   1.415       .  A
C206        C222   1.416       .  A
C206        C214   1.386       .  A
C207        C215   1.386       .  A
C207        C224   1.426       .  A
C208        C223   1.428       .  A
C208        C216   1.389       .  A
C209        C221   1.423       .  A
C209        C217   1.386       .  A
C210        C224   1.426   1_565  A
C210        C218   1.388       .  A
C211        C219   1.386       .  A
C211        C222   1.428       .  A
C212        C220   1.388       .  A
C212        C223   1.432   1_565  A
C213        C214   1.377       .  A
C213        H225   1.082       .  S
C214        H226   1.083       .  S
C215        C216   1.357       .  A
C215        H227   1.079       .  S
C216        H228   1.077       .  S
C217        C218   1.379       .  A
C217        H229   1.082       .  S
C218        H230   1.081       .  S
C219        C220   1.384       .  A
C219        H231   1.083       .  S
C220        H232   1.081   1_565  S
N235        C240   1.359       .  A
N235        C239   1.357       .  A
N235        H267   1.040       .  S
N236        C243   1.357       .  A
N236        C244   1.356       .  A
N237        C242   1.356       .  A
N237        C241   1.354       .  A
N237        H268   1.042       .  S
N238        C245   1.356       .  A
N238        C246   1.355       .  A
C239        C247   1.389       .  A
C239        C255   1.428       .  A
C240        C256   1.422       .  A
C240        C248   1.386       .  A
C241        C249   1.386       .  A
C241        C258   1.416       .  A
C242        C257   1.414       .  A
C242        C250   1.383       .  A
C243        C255   1.425       .  A
C243        C251   1.387       .  A
C244        C258   1.425       .  A
C244        C252   1.387       .  A
C245        C253   1.389       .  A
C245        C256   1.424       .  A
C246        C254   1.384       .  A
C246        C257   1.419       .  A
C247        C248   1.353       .  A
C247        H259   1.076       .  S
C248        H260   1.077       .  S
C249        C250   1.378       .  A
C249        H261   1.082       .  S
C250        H262   1.082       .  S
C251        C252   1.384       .  A
C251        H263   1.082       .  S
C252        H264   1.082       .  S
C253        C254   1.376       .  A
C253        H265   1.080       .  S
C254        H266   1.082       .  S
O269       Ni277   1.907       .  S
O269        C279   1.281       .  A
O270       Ni277   1.906       .  S
O270        C280   1.280       .  A
O271       Ni277   1.897       .  S
O271        C281   1.277       .  A
O272       Ni277   1.919       .  S
O272        C282   1.280       .  A
O273       Ni278   1.944       .  S
O273        C282   1.286       .  A
O274       Ni278   1.932       .  S
O274        C281   1.285       .  A
O275       Ni278   1.929       .  S
O275        C280   1.282       .  A
O276       Ni278   1.909       .  S
O276        C279   1.279       .  A
Ni277      Ni278   2.387       .  S
C279        C469   1.479       .  S
C281        C570   1.476       .  S
O283       Ni291   1.910       .  S
O283        C293   1.278       .  A
O284       Ni291   1.886       .  S
O284        C294   1.274       .  A
O285       Ni291   1.916       .  S
O285        C295   1.282       .  A
O286       Ni291   1.925       .  S
O286        C296   1.284       .  A
O287       Ni292   1.911       .  S
O287        C296   1.279       .  A
O288       Ni292   1.932       .  S
O288        C295   1.282       .  A
O289       Ni292   1.940       .  S
O289        C294   1.286       .  A
O290       Ni292   1.945       .  S
O290        C293   1.286       .  A
Ni291      Ni292   2.384       .  S
C294        C445   1.479       .  S
C296        C546   1.493       .  S
C297        C298   1.412       .  A
C297        C302   1.401       .  A
C297        C311   1.444       .  S
C298        C303   1.491       .  S
C298        C299   1.407       .  A
C299        C300   1.404       .  A
C299        H318   1.085       .  S
C300        C301   1.411       .  A
C300        C312   1.444       .  S
C301        C302   1.398       .  A
C302        H317   1.080       .  S
C303        C304   1.399       .  A
C303        C308   1.413       .  A
C304        C305   1.398       .  A
C304        H319   1.085       .  S
C305        C306   1.419       .  A
C305        C309   1.445       .  S
C306        C307   1.406       .  A
C307        C308   1.407       .  A
C307        H320   1.084       .  S
C308        C310   1.443       .  S
C309        N313   1.157       .  T
C310        N314   1.157       .  T
C311        N316   1.157       .  T
C312        N315   1.157       .  T
C321        C322   1.415       .  A
C321        C326   1.407       .  A
C321        C335   1.443       .  S
C322        C327   1.482       .  S
C322        C323   1.394       .  A
C323        C324   1.389       .  A
C323        H342   1.086       .  S
C324        C325   1.420       .  A
C324        C336   1.445       .  S
C325        C326   1.402       .  A
C326        H341   1.084       .  S
C327        C328   1.400       .  A
C327        C332   1.411       .  A
C328        C329   1.402       .  A
C328        H343   1.085       .  S
C329        C330   1.416       .  A
C329        C333   1.440       .  S
C330        C331   1.407       .  A
C331        C332   1.394       .  A
C331        H344   1.085       .  S
C332        C334   1.446       .  S
C333        N337   1.157       .  T
C334        N338   1.157       .  T
C335        N340   1.157   1_545  T
C336        N339   1.157       .  T
C345        C346   1.405       .  A
C345        C350   1.394       .  A
C345        C359   1.446       .  S
C346       C1031   1.492       .  S
C346        C347   1.409       .  A
C347        C348   1.411       .  A
C347        H366   1.084       .  S
C348        C349   1.414       .  A
C348        C360   1.442       .  S
C349        C350   1.414       .  A
C350        H365   1.084       .  S
C351       C1026   1.491       .  S
C351        C356   1.413       .  A
C351       C1032   1.403       .  A
C352       C1031   1.403       .  A
C352       C1033   1.401       .  A
C352        H367   1.081       .  S
C353        C354   1.413       .  A
C353       C1032   1.401       .  A
C353        C357   1.444       .  S
C354        C355   1.402       .  A
C355        C356   1.400       .  A
C355        H368   1.080       .  S
C356        C358   1.444       .  S
C357       N1041   1.157       .  T
C358        N362   1.157       .  T
C359        N364   1.157       .  T
C360        N363   1.157       .  T
N361       C1037   1.157       .  T
C369       C1050   1.410       .  A
C369       C1054   1.394       .  A
C369        C383   1.445       .  S
C370       C1055   1.485       .  S
C370        C371   1.405   1_556  A
C370       C1049   1.410       .  A
C371        C372   1.403       .  A
C371        H390   1.085       .  S
C372        C373   1.417       .  A
C372        C384   1.444       .  S
C373        C374   1.409       .  A
C374       C1049   1.394   1_554  A
C374        H389   1.079   1_554  S
C375       C1050   1.485       .  S
C375        C376   1.409       .  A
C375        C380   1.408       .  A
C376        C377   1.403       .  A
C376        H391   1.085       .  S
C377        C378   1.408       .  A
C377        C381   1.443       .  S
C378        C379   1.409       .  A
C379        C380   1.393       .  A
C379        H392   1.085       .  S
C380        C382   1.445       .  S
C381        N385   1.157       .  T
C382        N386   1.157       .  T
C383        N388   1.157       .  T
C384        N387   1.157       .  T
C393        C398   1.393   1_556  A
C393       C1074   1.408       .  A
C393       C1087   1.445       .  S
C394        C399   1.480       .  S
C394       C1073   1.408       .  A
C394       C1075   1.406       .  A
C395        C396   1.403       .  A
C395       C1074   1.406       .  A
C395       H1094   1.085       .  S
C396        C397   1.406   1_556  A
C396        C408   1.442   1_556  S
C397        C398   1.406       .  A
C398        H413   1.085   1_565  S
C399        C400   1.402       .  A
C399        C404   1.405       .  A
C400        C401   1.403       .  A
C400        H415   1.085       .  S
C401        C402   1.417       .  A
C401        C405   1.443       .  S
C402        C403   1.411       .  A
C403        C404   1.395       .  A
C403        H416   1.084       .  S
C404       C1086   1.445       .  S
C405        N409   1.157       .  T
C406       C1084   1.445   1_554  S
C406        N410   1.157       .  T
C407       C1073   1.445       .  S
C407        N412   1.157   1_565  T
C408        N411   1.157       .  T
H414       C1075   1.085       .  S
C417        C418   1.404   1_565  A
C417        C422   1.395       .  A
C417        C431   1.445       .  S
C418        C423   1.484       .  S
C418        C419   1.403       .  A
C419        C420   1.405       .  A
C419        H438   1.085       .  S
C420        C421   1.416       .  A
C420        C432   1.442       .  S
C421        C422   1.410   1_545  A
C422        H437   1.081       .  S
C423        C424   1.401       .  A
C423        C428   1.408       .  A
C424        C425   1.404       .  A
C424        H439   1.085       .  S
C425        C426   1.419       .  A
C425        C429   1.443       .  S
C426        C427   1.410       .  A
C427        C428   1.397       .  A
C427        H440   1.084       .  S
C428        C430   1.446       .  S
C429        N433   1.157       .  T
C430        N434   1.157       .  T
C431        N436   1.157       .  T
C432        N435   1.157       .  T
C441        C442   1.416       .  A
C441        C446   1.410       .  A
C441        C455   1.443   1_565  S
C442        C447   1.486       .  S
C442        C443   1.396       .  A
C443        C444   1.386       .  A
C443        H462   1.086       .  S
C444        C445   1.419       .  A
C444        C456   1.446       .  S
C445        C446   1.405       .  A
C446        H461   1.084       .  S
C447        C448   1.403       .  A
C447        C452   1.412       .  A
C448        C449   1.391       .  A
C448        H463   1.085       .  S
C449        C450   1.414       .  A
C449        C453   1.446       .  S
C450        C451   1.406       .  A
C451        C452   1.404       .  A
C451        H464   1.084       .  S
C452        C454   1.443       .  S
C453        N457   1.157       .  T
C454        N458   1.157       .  T
C455        N460   1.157       .  T
C456        N459   1.157       .  T
C465        C466   1.412       .  A
C465        C470   1.397       .  A
C465       C1159   1.445       .  S
C466        C471   1.481       .  S
C466        C467   1.399       .  A
C467        C468   1.398       .  A
C467        H486   1.085       .  S
C468        C469   1.418       .  A
C468        C480   1.444       .  S
C469        C470   1.404       .  A
C470        H485   1.085       .  S
C471       C1152   1.401       .  A
C471       C1156   1.404       .  A
C472        C473   1.399   1_556  A
C472       C1151   1.401       .  A
C472       H1167   1.085   1_556  S
C473        C474   1.421   1_554  A
C473        C477   1.443       .  S
C474        C475   1.415       .  A
C475        C476   1.396       .  A
C475        H488   1.075       .  S
C476       C1151   1.404       .  A
C476       C1158   1.445       .  S
C477        N481   1.157       .  T
C478       C1156   1.445       .  S
C478        N482   1.157       .  T
C479       C1145   1.445       .  S
C479        N484   1.157   1_556  T
C480        N483   1.157       .  T
H487       C1152   1.085       .  S
C489        C490   1.408       .  A
C489        C494   1.404       .  A
C489        C503   1.444       .  S
C490        C495   1.480       .  S
C490        C491   1.394       .  A
C491        C492   1.395       .  A
C491        H510   1.085       .  S
C492        C493   1.426       .  A
C492        C504   1.446       .  S
C493        C494   1.412       .  A
C494        H509   1.078       .  S
C495        C496   1.399       .  A
C495        C500   1.407       .  A
C496        C497   1.400       .  A
C496        H511   1.085       .  S
C497        C498   1.421       .  A
C497        C501   1.444       .  S
C498        C499   1.410       .  A
C499        C500   1.400       .  A
C499        H512   1.084       .  S
C500        C502   1.444       .  S
C501        N505   1.157       .  T
C502        N506   1.157       .  T
C503        N508   1.157       .  T
C504        N507   1.157       .  T
C513        C514   1.406       .  A
C513        C518   1.400       .  A
C513        C527   1.443       .  S
C514       C1199   1.478       .  S
C514        C515   1.404       .  A
C515        C516   1.399       .  A
C515        H534   1.085       .  S
C516        C517   1.409       .  A
C516        C528   1.444       .  S
C517        C518   1.407       .  A
C518        H533   1.085       .  S
C519       C1194   1.478       .  S
C519        C520   1.405   1_556  A
C519       C1204   1.402       .  A
C520        C521   1.405       .  A
C520        H535   1.085       .  S
C521        C522   1.411       .  A
C521        C525   1.443       .  S
C522        C523   1.410       .  A
C523       C1204   1.394   1_554  A
C523        H536   1.078       .  S
C524       C1199   1.402       .  A
C524       C1203   1.394       .  A
C524        C526   1.445       .  S
C525        N529   1.157       .  T
C526        N530   1.157       .  T
C527        N532   1.157       .  T
C528        N531   1.157       .  T
C537        C538   1.416       .  A
C537        C542   1.403       .  A
C537        C551   1.441       .  S
C538        C543   1.490       .  S
C538        C539   1.400       .  A
C539        C540   1.399       .  A
C539        H558   1.085       .  S
C540        C541   1.417       .  A
C540        C552   1.444       .  S
C541        C542   1.399       .  A
C542        H557   1.085       .  S
C543        C544   1.400       .  A
C543        C548   1.412       .  A
C544        C545   1.400       .  A
C544        H559   1.085       .  S
C545        C546   1.421       .  A
C545        C549   1.444       .  S
C546        C547   1.408       .  A
C547        C548   1.404       .  A
C547        H560   1.084       .  S
C548        C550   1.444       .  S
C549        N553   1.157       .  T
C550        N554   1.157       .  T
C551        N556   1.156       .  T
C552        N555   1.157       .  T
C561       C1242   1.402       .  A
C561       C1246   1.396       .  A
C561        C575   1.444       .  S
C562       C1247   1.479       .  S
C562        C563   1.404   1_556  A
C562       C1241   1.402       .  A
C563        C564   1.405       .  A
C563        H582   1.085       .  S
C564        C565   1.415       .  A
C564        C576   1.442       .  S
C565        C566   1.411       .  A
C566       C1241   1.396   1_554  A
C566        H581   1.082       .  S
C567       C1242   1.479       .  S
C567        C568   1.401       .  A
C567        C572   1.408       .  A
C568        C569   1.400       .  A
C568        H583   1.085       .  S
C569        C570   1.412       .  A
C569        C573   1.444       .  S
C570        C571   1.405       .  A
C571        C572   1.401       .  A
C571        H584   1.083       .  S
C572        C574   1.443       .  S
C573        N577   1.157       .  T
C574        N578   1.157       .  T
C575        N580   1.157       .  T
C576        N579   1.157       .  T
C585        C586   1.414       .  A
C585        C590   1.405       .  A
C585        C599   1.439       .  S
C586        C591   1.499       .  S
C586        C587   1.399       .  A
C587        C588   1.396       .  A
C587        H606   1.085   1_565  S
C588        C589   1.421       .  A
C588        C600   1.441   1_565  S
C589        C590   1.408       .  A
C590        H605   1.084       .  S
C591        C592   1.409       .  A
C591        C596   1.415       .  A
C592        C593   1.409       .  A
C592        H607   1.084       .  S
C593        C594   1.415       .  A
C593        C597   1.443       .  S
C594        C595   1.405       .  A
C595        C596   1.392       .  A
C595        H608   1.085       .  S
C596        C598   1.446       .  S
C597        N601   1.157       .  T
C598        N602   1.157       .  T
C599        N604   1.155       .  T
C600        N603   1.157       .  T
C609        C610   1.414       .  A
C609        C614   1.396       .  A
C609        C623   1.445       .  S
C610        C615   1.495       .  S
C610        C611   1.407       .  A
C611        C612   1.407       .  A
C611        H630   1.083       .  S
C612        C613   1.410       .  A
C612        C624   1.438       .  S
C613        C614   1.407       .  A
C614        H629   1.085       .  S
C615        C616   1.407       .  A
C615        C620   1.412       .  A
C616        C617   1.400       .  A
C616        H631   1.085       .  S
C617        C618   1.411       .  A
C617        C621   1.444       .  S
C618        C619   1.408       .  A
C619        C620   1.403       .  A
C619        H632   1.084       .  S
C620        C622   1.443       .  S
C621        N625   1.157       .  T
C622        N626   1.157       .  T
C623        N628   1.157       .  T
C624        N627   1.157       .  T
C633        C634   1.410       .  A
C633        C638   1.395       .  A
C633        C647   1.443       .  S
C634       C1319   1.483       .  S
C634        C635   1.408       .  A
C635        C636   1.401       .  A
C635        H654   1.085       .  S
C636        C637   1.404       .  A
C636        C648   1.444       .  S
C637        C638   1.401       .  A
C638        H653   1.085       .  S
C639       C1314   1.483   1_554  S
C639        C644   1.408       .  A
C639       C1320   1.401       .  A
C640       C1319   1.401       .  A
C640       C1321   1.400       .  A
C640        H655   1.085       .  S
C641        C642   1.420       .  A
C641       C1320   1.400       .  A
C641        C645   1.443       .  S
C642        C643   1.412       .  A
C643        C644   1.397       .  A
C643        H656   1.083       .  S
C644        C646   1.445       .  S
C645        N649   1.157       .  T
C646        N650   1.157       .  T
C647       N1332   1.157       .  T
C648        N651   1.157       .  T
N652       C1327   1.157       .  T
C657       C1338   1.410       .  A
C657       C1342   1.394   1_545  A
C657        C671   1.445   1_545  S
C658       C1343   1.487       .  S
C658        C659   1.408       .  A
C658       C1337   1.410   1_556  A
C659        C660   1.403   1_556  A
C659        H678   1.081       .  S
C660        C661   1.404       .  A
C660        C672   1.443       .  S
C661        C662   1.406   1_545  A
C662       C1337   1.394   1_565  A
C662        H677   1.085       .  S
C663       C1338   1.487       .  S
C663        C664   1.403       .  A
C663        C668   1.412       .  A
C664        C665   1.396       .  A
C664        H679   1.085       .  S
C665        C666   1.414       .  A
C665        C669   1.445       .  S
C666        C667   1.406       .  A
C667        C668   1.401       .  A
C667        H680   1.084       .  S
C668        C670   1.444       .  S
C669        N673   1.157       .  T
C670        N674   1.157       .  T
C671        N676   1.157       .  T
C672        N675   1.157       .  T
O681       Ni689   1.908       .  S
O681        C691   1.279       .  A
O682       Ni689   1.926       .  S
O682        C692   1.282       .  A
O683       Ni689   1.900       .  S
O683        C693   1.278       .  A
O684       Ni689   1.903       .  S
O684        C694   1.278       .  A
O685       Ni690   1.936       .  S
O685        C694   1.284       .  A
O686       Ni690   1.923       .  S
O686        C693   1.283       .  A
O687       Ni690   1.924       .  S
O687        C692   1.281       .  A
O688       Ni690   1.912       .  S
O688        C691   1.279       .  A
Ni689      Ni690   2.390       .  S
C691       C1317   1.462       .  S
C692        C715   1.485       .  S
C693       C1346   1.481       .  S
C694        C749   1.487       .  S
N695        C700   1.354       .  A
N695        C699   1.353       .  A
N695        H727   1.040       .  S
N696        C703   1.354       .  A
N696        C704   1.356   1_545  A
N697        C702   1.359       .  A
N697        C701   1.362       .  A
N697        H728   1.036   1_565  S
N698        C705   1.357       .  A
N698        C706   1.356       .  A
C699        C707   1.386       .  A
C699        C715   1.412       .  A
C700        C716   1.411   1_455  A
C700        C708   1.384       .  A
C701        C709   1.387       .  A
C701        C718   1.429       .  A
C702        C717   1.428   1_455  A
C702        C710   1.388       .  A
C703        C715   1.420       .  A
C703        C711   1.386       .  A
C704        C718   1.424       .  A
C704        C712   1.388   1_565  A
C705        C713   1.384       .  A
C705        C716   1.421       .  A
C706        C714   1.389       .  A
C706        C717   1.427   1_545  A
C707        C708   1.375       .  A
C707        H719   1.082       .  S
C708        H720   1.083       .  S
C709        C710   1.357       .  A
C709        H721   1.078       .  S
C710        H722   1.077       .  S
C711        C712   1.379       .  A
C711        H723   1.082       .  S
C712        H724   1.081   1_545  S
C713        C714   1.381       .  A
C713        H725   1.083       .  S
C714        H726   1.081       .  S
C716        C962   1.493       .  S
C717        C975   1.498       .  S
C718        C775   1.505       .  S
N729        C734   1.355       .  A
N729        C733   1.355       .  A
N729        H761   1.041       .  S
N730        C737   1.355       .  A
N730        C738   1.354       .  A
N731        C736   1.355       .  A
N731        C735   1.355       .  A
N731        H762   1.039       .  S
N732        C739   1.356   1_455  A
N732        C740   1.355   1_455  A
C733        C741   1.386       .  A
C733        C749   1.416       .  A
C734        C750   1.419   1_455  A
C734        C742   1.389       .  A
C735        C743   1.386       .  A
C735        C752   1.420       .  A
C736        C751   1.418   1_455  A
C736        C744   1.385       .  A
C737        C749   1.417       .  A
C737        C745   1.386       .  A
C738        C752   1.421       .  A
C738        C746   1.388       .  A
C739        C747   1.387       .  A
C739        C750   1.422       .  A
C740        C748   1.387       .  A
C740        C751   1.422       .  A
C741        C742   1.359       .  A
C741        H753   1.079       .  S
C742        H754   1.078       .  S
C743        C744   1.379       .  A
C743        H755   1.082       .  S
C744        H756   1.082       .  S
C745        C746   1.377       .  A
C745        H757   1.082       .  S
C746        H758   1.082       .  S
C747        C748   1.377       .  A
C747        H759   1.082       .  S
C748        H760   1.081       .  S
C750        C960   1.489       .  S
C751        C973   1.490       .  S
C752        C773   1.487       .  S
O763       Ni771   1.947       .  S
O763        C773   1.287       .  A
O764       Ni771   1.944       .  S
O764        C774   1.287       .  A
O765       Ni771   1.939       .  S
O765        C775   1.284       .  A
O766       Ni771   1.919       .  S
O766        C776   1.282       .  A
O767       Ni772   1.915       .  S
O767        C776   1.282       .  A
O768       Ni772   1.914       .  S
O768        C775   1.282       .  A
O769       Ni772   1.884       .  S
O769        C774   1.276       .  A
O770       Ni772   1.906       .  S
O770        C773   1.277       .  A
Ni771      Ni772   2.383       .  S
C774       C1274   1.489       .  S
C776       C1298   1.486       .  S
C777        C778   1.527       .  S
C777        C783   1.525       .  S
C777        C781   1.565       .  S
C777       C1173   1.534       .  S
C778        H785   1.089       .  S
C778        C779   1.359       .  D
C779        C780   1.549       .  S
C779       C1202   1.492       .  S
C780        C784   1.545       .  S
C780        C782   1.532       .  S
C780        H786   1.110       .  S
C781        H787   1.080       .  S
C781        C782   1.380       .  D
C782       C1245   1.498       .  S
C783        H788   1.087       .  S
C783        C784   1.358       .  D
C784       C1221   1.486       .  S
C789        C790   1.538       .  S
C789        C795   1.522       .  S
C789        C793   1.551       .  S
C789       C1154   1.537       .  S
C790        H797   1.082       .  S
C790        C791   1.361   1_545  D
C791        C792   1.539       .  S
C791       C1077   1.480       .  S
C792        C796   1.539       .  S
C792        C794   1.541   1_565  S
C792        H798   1.110       .  S
C793        H799   1.085       .  S
C793        C794   1.380       .  D
C794       C1101   1.497       .  S
C795        H800   1.086       .  S
C795        C796   1.355   1_545  D
C796       C1130   1.485       .  S
O801       Ni809   1.915       .  S
O801        C811   1.281       .  A
O802       Ni809   1.937       .  S
O802        C812   1.283       .  A
O803       Ni809   1.926       .  S
O803        C813   1.284       .  A
O804       Ni809   1.939       .  S
O804        C814   1.284       .  A
O805       Ni810   1.926       .  S
O805        C814   1.282       .  A
O806       Ni810   1.900       .  S
O806        C813   1.279       .  A
O807       Ni810   1.917       .  S
O807        C812   1.283       .  A
O808       Ni810   1.912       .  S
O808        C811   1.281       .  A
Ni809      Ni810   2.383       .  S
C811       C1178   1.490       .  S
C812        C904   1.502       .  S
C813       C1106   1.492       .  S
C814        C938   1.494       .  S
O815       Ni823   1.930       .  S
O815        C825   1.282       .  A
O816       Ni823   1.916       .  S
O816        C826   1.281       .  A
O817       Ni823   1.953       .  S
O817        C827   1.287       .  A
O818       Ni823   1.931       .  S
O818        C828   1.285       .  A
O819       Ni824   1.894       .  S
O819        C828   1.278       .  A
O820       Ni824   1.901       .  S
O820        C827   1.278       .  A
O821       Ni824   1.905       .  S
O821        C826   1.279       .  A
O822       Ni824   1.933       .  S
O822        C825   1.284       .  A
Ni823      Ni824   2.383       .  S
C825        C901   1.494       .  S
C826       C1197   1.472       .  S
C827        C935   1.500       .  S
C828       C1082   1.490       .  S
O829       Ni837   1.894       .  S
O829        C839   1.277       .  A
O830       Ni837   1.923       .  S
O830        C840   1.279       .  A
O831       Ni837   1.954       .  S
O831        C841   1.290       .  A
O832       Ni837   1.954       .  S
O832        C842   1.289       .  A
O833       Ni838   1.913       .  S
O833        C842   1.278       .  A
O834       Ni838   1.883       .  S
O834        C841   1.274       .  A
O835       Ni838   1.915       .  S
O835        C840   1.283       .  A
O836       Ni838   1.919       .  S
O836        C839   1.282       .  A
Ni837      Ni838   2.384       .  S
C839       C1058   1.476       .  S
C840        C936   1.498       .  S
C841       C1029   1.497       .  S
C842        C902   1.496       .  S
C843        C844   1.526       .  S
C843        C849   1.538       .  S
C843        C847   1.546       .  S
C843       C1053   1.541       .  S
C844        H851   1.086       .  S
C844        C845   1.359       .  D
C845        C846   1.543   1_565  S
C845       C1010   1.490   1_565  S
C846        C850   1.542   1_545  S
C846        C848   1.543   1_545  S
C846        H852   1.106       .  S
C847        H853   1.085       .  S
C847        C848   1.382       .  D
C848       C1269   1.501       .  S
C849        H854   1.081       .  S
C849        C850   1.355       .  D
C850       C1341   1.479   1_565  S
O855       Ni863   1.922       .  S
O855        C865   1.284       .  A
O856       Ni863   1.925       .  S
O856        C866   1.283       .  A
O857       Ni863   1.911       .  S
O857        C867   1.277       .  A
O858       Ni863   1.884       .  S
O858        C868   1.274       .  A
O859       Ni864   1.942       .  S
O859        C868   1.287       .  A
O860       Ni864   1.950       .  S
O860        C867   1.288       .  A
O861       Ni864   1.915       .  S
O861        C866   1.280       .  A
O862       Ni864   1.938       .  S
O862        C865   1.282       .  A
Ni863      Ni864   2.385       .  S
C865        C903   1.505       .  S
C866        C986   1.487       .  S
C867        C937   1.492       .  S
C868       C1005   1.477       .  S
C869        C870   1.536       .  S
C869        C875   1.530       .  S
C869        C873   1.537       .  S
C869       C1322   1.539       .  S
C870        H877   1.081       .  S
C870        C871   1.365       .  D
C871        C872   1.546       .  S
C871       C1034   1.490       .  S
C872        C876   1.550       .  S
C872        C874   1.544       .  S
C872        H878   1.109       .  S
C873        H879   1.086       .  S
C873        C874   1.367       .  D
C874        C981   1.485       .  S
C875        H880   1.085       .  S
C875        C876   1.366       .  D
C876       C1293   1.500       .  S
N881        C886   1.355       .  A
N881        C885   1.355       .  A
N881        H913   1.037       .  S
N882        C889   1.356       .  A
N882        C890   1.357       .  A
N883        C888   1.359       .  A
N883        C887   1.360       .  A
N883        H914   1.031   1_545  S
N884        C891   1.359       .  A
N884        C892   1.359       .  A
C885        C893   1.384       .  A
C885        C901   1.415       .  A
C886        C902   1.416       .  A
C886        C894   1.387       .  A
C887        C895   1.386       .  A
C887        C904   1.426       .  A
C888        C903   1.428       .  A
C888        C896   1.389       .  A
C889        C901   1.423       .  A
C889        C897   1.386       .  A
C890        C904   1.426   1_565  A
C890        C898   1.388       .  A
C891        C899   1.386       .  A
C891        C902   1.427       .  A
C892        C900   1.388       .  A
C892        C903   1.432   1_565  A
C893        C894   1.377       .  A
C893        H905   1.082       .  S
C894        H906   1.083       .  S
C895        C896   1.357       .  A
C895        H907   1.079       .  S
C896        H908   1.077       .  S
C897        C898   1.379       .  A
C897        H909   1.082       .  S
C898        H910   1.081       .  S
C899        C900   1.384       .  A
C899        H911   1.083       .  S
C900        H912   1.081   1_565  S
N915        C920   1.360       .  A
N915        C919   1.358       .  A
N915        H947   1.039       .  S
N916        C923   1.357       .  A
N916        C924   1.356       .  A
N917        C922   1.356       .  A
N917        C921   1.354       .  A
N917        H948   1.040       .  S
N918        C925   1.356       .  A
N918        C926   1.355       .  A
C919        C927   1.389       .  A
C919        C935   1.428       .  A
C920        C936   1.422       .  A
C920        C928   1.386       .  A
C921        C929   1.386       .  A
C921        C938   1.416       .  A
C922        C937   1.414       .  A
C922        C930   1.384       .  A
C923        C935   1.425       .  A
C923        C931   1.387       .  A
C924        C938   1.425       .  A
C924        C932   1.387       .  A
C925        C933   1.389       .  A
C925        C936   1.424       .  A
C926        C934   1.384       .  A
C926        C937   1.419       .  A
C927        C928   1.353       .  A
C927        H939   1.076       .  S
C928        H940   1.077       .  S
C929        C930   1.378       .  A
C929        H941   1.082       .  S
C930        H942   1.082       .  S
C931        C932   1.384       .  A
C931        H943   1.082       .  S
C932        H944   1.082       .  S
C933        C934   1.376       .  A
C933        H945   1.080       .  S
C934        H946   1.082       .  S
O949       Ni957   1.908       .  S
O949        C959   1.281       .  A
O950       Ni957   1.906       .  S
O950        C960   1.280       .  A
O951       Ni957   1.897       .  S
O951        C961   1.277       .  A
O952       Ni957   1.919       .  S
O952        C962   1.280       .  A
O953       Ni958   1.943       .  S
O953        C962   1.285       .  A
O954       Ni958   1.932       .  S
O954        C961   1.285       .  A
O955       Ni958   1.929       .  S
O955        C960   1.282       .  A
O956       Ni958   1.909       .  S
O956        C959   1.279       .  A
Ni957      Ni958   2.387       .  S
C959       C1149   1.480       .  S
C961       C1250   1.475       .  S
O963       Ni971   1.910       .  S
O963        C973   1.278       .  A
O964       Ni971   1.886       .  S
O964        C974   1.274       .  A
O965       Ni971   1.916       .  S
O965        C975   1.282       .  A
O966       Ni971   1.924       .  S
O966        C976   1.284       .  A
O967       Ni972   1.911       .  S
O967        C976   1.279       .  A
O968       Ni972   1.932       .  S
O968        C975   1.282       .  A
O969       Ni972   1.941       .  S
O969        C974   1.286       .  A
O970       Ni972   1.946       .  S
O970        C973   1.287       .  A
Ni971      Ni972   2.384       .  S
C974       C1125   1.480       .  S
C976       C1226   1.493       .  S
C977        C978   1.412       .  A
C977        C982   1.401       .  A
C977        C991   1.444       .  S
C978        C983   1.490       .  S
C978        C979   1.406       .  A
C979        C980   1.403       .  A
C979        H998   1.085       .  S
C980        C981   1.411       .  A
C980        C992   1.444       .  S
C981        C982   1.398       .  A
C982        H997   1.080       .  S
C983        C984   1.399       .  A
C983        C988   1.413       .  A
C984        C985   1.398       .  A
C984        H999   1.085       .  S
C985        C986   1.419       .  A
C985        C989   1.445       .  S
C986        C987   1.406       .  A
C987        C988   1.406       .  A
C987       H1000   1.084       .  S
C988        C990   1.443       .  S
C989        N993   1.157       .  T
C990        N994   1.157       .  T
C991        N996   1.157       .  T
C992        N995   1.157       .  T
C1001      C1002   1.415       .  A
C1001      C1006   1.407       .  A
C1001      C1015   1.443       .  S
C1002      C1007   1.483       .  S
C1002      C1003   1.394       .  A
C1003      C1004   1.389       .  A
C1003      H1022   1.086       .  S
C1004      C1005   1.420       .  A
C1004      C1016   1.445       .  S
C1005      C1006   1.403       .  A
C1006      H1021   1.084       .  S
C1007      C1008   1.401       .  A
C1007      C1012   1.411       .  A
C1008      C1009   1.402       .  A
C1008      H1023   1.085       .  S
C1009      C1010   1.416       .  A
C1009      C1013   1.440       .  S
C1010      C1011   1.406       .  A
C1011      C1012   1.394       .  A
C1011      H1024   1.085       .  S
C1012      C1014   1.446       .  S
C1013      N1017   1.157       .  T
C1014      N1018   1.157       .  T
C1015      N1020   1.157   1_545  T
C1016      N1019   1.157       .  T
C1025      C1026   1.405       .  A
C1025      C1030   1.394       .  A
C1025      C1039   1.446       .  S
C1026      C1027   1.409   1_554  A
C1027      C1028   1.411       .  A
C1027      H1046   1.084       .  S
C1028      C1029   1.414       .  A
C1028      C1040   1.442       .  S
C1029      C1030   1.414   1_556  A
C1030      H1045   1.084       .  S
C1031      C1036   1.413       .  A
C1032      H1047   1.081       .  S
C1033      C1034   1.413       .  A
C1033      C1037   1.444       .  S
C1034      C1035   1.402       .  A
C1035      C1036   1.401       .  A
C1035      H1048   1.080       .  S
C1036      C1038   1.444       .  S
C1038      N1042   1.157       .  T
C1039      N1044   1.157       .  T
C1040      N1043   1.157       .  T
C1049      C1063   1.445       .  S
C1050      C1051   1.405       .  A
C1051      C1052   1.403       .  A
C1051      H1070   1.085       .  S
C1052      C1053   1.417       .  A
C1052      C1064   1.444       .  S
C1053      C1054   1.409       .  A
C1054      H1069   1.079       .  S
C1055      C1056   1.409       .  A
C1055      C1060   1.408       .  A
C1056      C1057   1.403       .  A
C1056      H1071   1.085   1_556  S
C1057      C1058   1.408       .  A
C1057      C1061   1.443       .  S
C1058      C1059   1.409       .  A
C1059      C1060   1.393       .  A
C1059      H1072   1.085       .  S
C1060      C1062   1.445       .  S
C1061      N1065   1.157       .  T
C1062      N1066   1.157       .  T
C1063      N1068   1.157       .  T
C1064      N1067   1.157       .  T
C1073      C1078   1.393       .  A
C1074      C1079   1.479       .  S
C1075      C1076   1.403       .  A
C1076      C1077   1.406       .  A
C1076      C1088   1.442       .  S
C1077      C1078   1.405       .  A
C1078      H1093   1.085   1_565  S
C1079      C1080   1.402       .  A
C1079      C1084   1.405       .  A
C1080      C1081   1.403       .  A
C1080      H1095   1.085       .  S
C1081      C1082   1.417       .  A
C1081      C1085   1.443       .  S
C1082      C1083   1.411       .  A
C1083      C1084   1.395       .  A
C1083      H1096   1.084       .  S
C1085      N1089   1.157       .  T
C1086      N1090   1.157       .  T
C1087      N1092   1.157   1_565  T
C1088      N1091   1.157       .  T
C1097      C1098   1.404   1_565  A
C1097      C1102   1.395       .  A
C1097      C1111   1.445       .  S
C1098      C1103   1.483       .  S
C1098      C1099   1.403       .  A
C1099      C1100   1.405       .  A
C1099      H1118   1.085       .  S
C1100      C1101   1.416       .  A
C1100      C1112   1.442       .  S
C1101      C1102   1.410   1_545  A
C1102      H1117   1.081       .  S
C1103      C1104   1.401       .  A
C1103      C1108   1.408       .  A
C1104      C1105   1.403       .  A
C1104      H1119   1.085       .  S
C1105      C1106   1.419       .  A
C1105      C1109   1.443       .  S
C1106      C1107   1.410       .  A
C1107      C1108   1.397       .  A
C1107      H1120   1.084       .  S
C1108      C1110   1.446       .  S
C1109      N1113   1.157       .  T
C1110      N1114   1.157       .  T
C1111      N1116   1.157       .  T
C1112      N1115   1.157       .  T
C1121      C1122   1.416       .  A
C1121      C1126   1.410       .  A
C1121      C1135   1.443   1_565  S
C1122      C1127   1.486       .  S
C1122      C1123   1.395       .  A
C1123      C1124   1.386       .  A
C1123      H1142   1.086       .  S
C1124      C1125   1.419       .  A
C1124      C1136   1.446       .  S
C1125      C1126   1.405       .  A
C1126      H1141   1.084       .  S
C1127      C1128   1.403       .  A
C1127      C1132   1.412       .  A
C1128      C1129   1.391       .  A
C1128      H1143   1.085       .  S
C1129      C1130   1.414       .  A
C1129      C1133   1.446       .  S
C1130      C1131   1.406       .  A
C1131      C1132   1.404       .  A
C1131      H1144   1.084       .  S
C1132      C1134   1.443       .  S
C1133      N1137   1.157       .  T
C1134      N1138   1.157       .  T
C1135      N1140   1.157       .  T
C1136      N1139   1.157       .  T
C1145      C1146   1.412       .  A
C1145      C1150   1.397       .  A
C1146      C1151   1.481       .  S
C1146      C1147   1.399       .  A
C1147      C1148   1.398       .  A
C1147      H1166   1.085       .  S
C1148      C1149   1.418       .  A
C1148      C1160   1.444       .  S
C1149      C1150   1.404       .  A
C1150      H1165   1.085       .  S
C1152      C1153   1.399       .  A
C1153      C1154   1.421       .  A
C1153      C1157   1.443       .  S
C1154      C1155   1.415       .  A
C1155      C1156   1.396       .  A
C1155      H1168   1.075       .  S
C1157      N1161   1.157       .  T
C1158      N1162   1.157       .  T
C1159      N1164   1.157       .  T
C1160      N1163   1.157       .  T
C1169      C1170   1.407       .  A
C1169      C1174   1.404       .  A
C1169      C1183   1.444       .  S
C1170      C1175   1.479       .  S
C1170      C1171   1.394       .  A
C1171      C1172   1.395       .  A
C1171      H1190   1.085       .  S
C1172      C1173   1.426       .  A
C1172      C1184   1.446       .  S
C1173      C1174   1.412       .  A
C1174      H1189   1.078       .  S
C1175      C1176   1.398       .  A
C1175      C1180   1.407       .  A
C1176      C1177   1.400       .  A
C1176      H1191   1.085       .  S
C1177      C1178   1.421       .  A
C1177      C1181   1.444       .  S
C1178      C1179   1.409       .  A
C1179      C1180   1.400       .  A
C1179      H1192   1.084       .  S
C1180      C1182   1.444       .  S
C1181      N1185   1.157       .  T
C1182      N1186   1.157       .  T
C1183      N1188   1.157       .  T
C1184      N1187   1.157       .  T
C1193      C1194   1.405       .  A
C1193      C1198   1.400       .  A
C1193      C1207   1.443       .  S
C1194      C1195   1.404       .  A
C1195      C1196   1.399       .  A
C1195      H1214   1.085   1_556  S
C1196      C1197   1.409       .  A
C1196      C1208   1.444       .  S
C1197      C1198   1.407       .  A
C1198      H1213   1.085       .  S
C1199      C1200   1.405       .  A
C1200      C1201   1.405       .  A
C1200      H1215   1.085       .  S
C1201      C1202   1.411       .  A
C1201      C1205   1.443       .  S
C1202      C1203   1.410       .  A
C1203      H1216   1.078       .  S
C1204      C1206   1.445       .  S
C1205      N1209   1.157       .  T
C1206      N1210   1.157       .  T
C1207      N1212   1.157       .  T
C1208      N1211   1.157       .  T
C1217      C1218   1.415       .  A
C1217      C1222   1.403       .  A
C1217      C1231   1.441       .  S
C1218      C1223   1.490       .  S
C1218      C1219   1.400       .  A
C1219      C1220   1.399       .  A
C1219      H1238   1.085       .  S
C1220      C1221   1.417       .  A
C1220      C1232   1.444       .  S
C1221      C1222   1.399       .  A
C1222      H1237   1.085       .  S
C1223      C1224   1.400       .  A
C1223      C1228   1.412       .  A
C1224      C1225   1.400       .  A
C1224      H1239   1.085       .  S
C1225      C1226   1.421       .  A
C1225      C1229   1.444       .  S
C1226      C1227   1.408       .  A
C1227      C1228   1.404       .  A
C1227      H1240   1.084       .  S
C1228      C1230   1.444       .  S
C1229      N1233   1.157       .  T
C1230      N1234   1.157       .  T
C1231      N1236   1.156       .  T
C1232      N1235   1.157       .  T
C1241      C1255   1.445       .  S
C1242      C1243   1.404       .  A
C1243      C1244   1.405       .  A
C1243      H1262   1.085       .  S
C1244      C1245   1.415       .  A
C1244      C1256   1.441       .  S
C1245      C1246   1.411       .  A
C1246      H1261   1.082       .  S
C1247      C1248   1.401       .  A
C1247      C1252   1.407       .  A
C1248      C1249   1.399       .  A
C1248      H1263   1.085   1_556  S
C1249      C1250   1.412       .  A
C1249      C1253   1.444       .  S
C1250      C1251   1.405       .  A
C1251      C1252   1.400       .  A
C1251      H1264   1.083       .  S
C1252      C1254   1.443       .  S
C1253      N1257   1.157       .  T
C1254      N1258   1.157       .  T
C1255      N1260   1.157       .  T
C1256      N1259   1.157       .  T
C1265      C1266   1.414       .  A
C1265      C1270   1.405       .  A
C1265      C1279   1.439       .  S
C1266      C1271   1.498       .  S
C1266      C1267   1.399       .  A
C1267      C1268   1.396       .  A
C1267      H1286   1.085   1_565  S
C1268      C1269   1.421       .  A
C1268      C1280   1.441   1_565  S
C1269      C1270   1.408       .  A
C1270      H1285   1.084       .  S
C1271      C1272   1.409       .  A
C1271      C1276   1.415       .  A
C1272      C1273   1.409       .  A
C1272      H1287   1.084       .  S
C1273      C1274   1.415       .  A
C1273      C1277   1.443       .  S
C1274      C1275   1.405       .  A
C1275      C1276   1.392       .  A
C1275      H1288   1.085       .  S
C1276      C1278   1.446       .  S
C1277      N1281   1.157       .  T
C1278      N1282   1.157       .  T
C1279      N1284   1.155       .  T
C1280      N1283   1.157       .  T
C1289      C1290   1.414       .  A
C1289      C1294   1.396       .  A
C1289      C1303   1.445       .  S
C1290      C1295   1.495       .  S
C1290      C1291   1.407       .  A
C1291      C1292   1.407       .  A
C1291      H1310   1.083       .  S
C1292      C1293   1.411       .  A
C1292      C1304   1.438       .  S
C1293      C1294   1.407       .  A
C1294      H1309   1.085       .  S
C1295      C1296   1.407       .  A
C1295      C1300   1.412       .  A
C1296      C1297   1.400       .  A
C1296      H1311   1.085       .  S
C1297      C1298   1.411       .  A
C1297      C1301   1.444       .  S
C1298      C1299   1.408       .  A
C1299      C1300   1.403       .  A
C1299      H1312   1.084       .  S
C1300      C1302   1.443       .  S
C1301      N1305   1.157       .  T
C1302      N1306   1.157       .  T
C1303      N1308   1.157       .  T
C1304      N1307   1.157       .  T
C1313      C1314   1.410       .  A
C1313      C1318   1.396       .  A
C1313      C1327   1.443       .  S
C1314      C1315   1.408       .  A
C1315      C1316   1.401       .  A
C1315      H1334   1.085   1_556  S
C1316      C1317   1.405       .  A
C1316      C1328   1.444       .  S
C1317      C1318   1.401       .  A
C1318      H1333   1.085       .  S
C1319      C1324   1.408       .  A
C1320      H1335   1.085   1_554  S
C1321      C1322   1.420       .  A
C1321      C1325   1.443       .  S
C1322      C1323   1.412       .  A
C1323      C1324   1.397       .  A
C1323      H1336   1.083       .  S
C1324      C1326   1.445       .  S
C1325      N1329   1.157       .  T
C1326      N1330   1.157       .  T
C1328      N1331   1.157       .  T
C1337      C1351   1.445   1_544  S
C1338      C1339   1.408       .  A
C1339      C1340   1.403       .  A
C1339      H1358   1.082       .  S
C1340      C1341   1.404       .  A
C1340      C1352   1.443       .  S
C1341      C1342   1.406   1_545  A
C1342      H1357   1.085       .  S
C1343      C1344   1.403       .  A
C1343      C1348   1.412       .  A
C1344      C1345   1.396       .  A
C1344      H1359   1.085   1_556  S
C1345      C1346   1.414       .  A
C1345      C1349   1.445       .  S
C1346      C1347   1.406       .  A
C1347      C1348   1.401       .  A
C1347      H1360   1.084       .  S
C1348      C1350   1.444       .  S
C1349      N1353   1.157   1_556  T
C1350      N1354   1.157       .  T
C1351      N1356   1.157       .  T
C1352      N1355   1.157       .  T
