geometry optimzed in LAMMPS
_audit_creation_date              2020-11-30 
_audit_creation_method            'lammps2cif' 
_symmetry_space_group_name_H-M    'P1' 
_symmetry_Int_Tables_number       1 
_symmetry_cell_setting            triclinic 
loop_ 
_symmetry_equiv_pos_as_xyz 
  x,y,z 
_cell_length_a                    43.48372487 
_cell_length_b                    43.49569108412807 
_cell_length_c                    43.484126095127095 
_cell_angle_alpha                 89.98329774066642 
_cell_angle_beta                  89.89459298295888 
_cell_angle_gamma                 89.97949975179228 
loop_ 
_atom_site_label 
_atom_site_type_symbol 
_atom_site_fract_x 
_atom_site_fract_y 
_atom_site_fract_z 
_atom_site_charge 
O1          O  0.07615906  0.12576155  0.39983855    -0.75100
O2          O  0.16422479  0.12970935  0.39977673    -0.75100
O3          O  0.11825622  0.17166152  0.40156729    -0.75200
O4          O  0.12217104  0.08375269  0.39832307    -0.75200
O5          O  0.12132982  0.08534405  0.34710919    -0.75100
O6          O  0.11920975  0.17335064  0.35031789    -0.75100
O7          O  0.16416153  0.13030933  0.34845262    -0.75100
O8          O  0.07620978  0.12828894  0.34867356    -0.75200
Ni9        Ni  0.12018071  0.12765594  0.40170940     1.25400
Ni10       Ni  0.12018815  0.12942436  0.34681989     1.25400
C11         C  0.06164234  0.12626153  0.37420480     0.87100
C12         C  0.17864257  0.13018169  0.37405243     0.87000
C13         C  0.11830857  0.18699690  0.37643534     0.87100
C14         C  0.12266068  0.07003086  0.37226120     0.87200
O15         O  0.08234114  0.87629313  0.34281857    -0.75100
O16         O  0.17050674  0.88069158  0.34341517    -0.75100
O17         O  0.12853360  0.83437150  0.34306643    -0.75200
O18         O  0.12431692  0.92243324  0.34301710    -0.75200
O19         O  0.12433808  0.92228743  0.39427214    -0.75100
O20         O  0.12774177  0.83428637  0.39429605    -0.75100
O21         O  0.16986078  0.87991768  0.39472126    -0.75100
O22         O  0.08219057  0.87645027  0.39409092    -0.75200
Ni23       Ni  0.12644659  0.87844158  0.34121923     1.25400
Ni24       Ni  0.12601469  0.87826684  0.39613581     1.25400
C25         C  0.06779385  0.87535037  0.36847673     0.87100
C26         C  0.18461836  0.88104096  0.36926727     0.87000
C27         C  0.12884212  0.81977172  0.36869260     0.87100
C28         C  0.12361699  0.93688892  0.36866891     0.87200
O29         O  0.86776004  0.16626191  0.35131126    -0.75100
O30         O  0.87138225  0.07827584  0.35098686    -0.75100
O31         O  0.82568866  0.12064026  0.35151875    -0.75200
O32         O  0.91362037  0.12418144  0.35085815    -0.75200
O33         O  0.91393719  0.12382692  0.40207527    -0.75100
O34         O  0.82589038  0.11985523  0.40285307    -0.75100
O35         O  0.87192404  0.07795479  0.40225673    -0.75100
O36         O  0.86829279  0.16597593  0.40261870    -0.75200
Ni37       Ni  0.86959224  0.12230429  0.34934878     1.25400
Ni38       Ni  0.86997410  0.12190197  0.40428577     1.25400
C39         C  0.86765545  0.18059168  0.37702482     0.87100
C40         C  0.87249153  0.06362446  0.37653574     0.87000
C41         C  0.81136905  0.11965405  0.37724998     0.87100
C42         C  0.92832482  0.12497928  0.37637266     0.87200
O43         O  0.91944350  0.87367566  0.34720968    -0.75100
O44         O  0.83163938  0.87058684  0.35043965    -0.75100
O45         O  0.87390636  0.91612787  0.34898647    -0.75200
O46         O  0.87695887  0.82802992  0.34896921    -0.75200
O47         O  0.87860897  0.82811401  0.40023812    -0.75100
O48         O  0.87614713  0.91612366  0.40020070    -0.75100
O49         O  0.83316544  0.87124795  0.40172611    -0.75100
O50         O  0.92137682  0.87332366  0.39843747    -0.75200
Ni51       Ni  0.87544612  0.87207612  0.34709102     1.25400
Ni52       Ni  0.87738379  0.87215719  0.40199091     1.25400
C53         C  0.93490724  0.87425008  0.37222798     0.87100
C54         C  0.81793263  0.87095349  0.37650726     0.87000
C55         C  0.87423161  0.93063133  0.37463692     0.87100
C56         C  0.87842699  0.81358495  0.37461912     0.87200
O57         O  0.09844887  0.42283951  0.37697728    -0.75100
O58         O  0.09667624  0.33476033  0.37699197    -0.75100
O59         O  0.09638396  0.37855923  0.42096388    -0.75200
O60         O  0.09876529  0.37915474  0.33282441    -0.75200
O61         O  0.15002485  0.37750729  0.33398628    -0.75100
O62         O  0.14765428  0.37811924  0.42209161    -0.75100
O63         O  0.14796523  0.33373259  0.37827212    -0.75100
O64         O  0.14972322  0.42185922  0.37748389    -0.75200
Ni65       Ni  0.09574668  0.37884400  0.37690545     1.25400
Ni66       Ni  0.15066866  0.37775097  0.37806788     1.25400
C67         C  0.12436579  0.43684339  0.37650473     0.87100
C68         C  0.12203264  0.31977583  0.37754109     0.87000
C69         C  0.12166067  0.37837864  0.43603644     0.87100
C70         C  0.12477978  0.37886840  0.31890805     0.87200
O71         O  0.14435976  0.37270842  0.67134588    -0.75100
O72         O  0.14453521  0.37184681  0.58344394    -0.75100
O73         O  0.14422664  0.41615818  0.62711447    -0.75200
O74         O  0.14433509  0.32823713  0.62803608    -0.75200
O75         O  0.09302093  0.32821352  0.62812372    -0.75100
O76         O  0.09316210  0.41631727  0.62635314    -0.75100
O77         O  0.09326710  0.37135240  0.58320774    -0.75100
O78         O  0.09307409  0.37346404  0.67145384    -0.75200
Ni79       Ni  0.14616245  0.37220004  0.62744297     1.25400
Ni80       Ni  0.09128032  0.37229010  0.62728950     1.25400
C81         C  0.11876808  0.37379906  0.68587719     0.87100
C82         C  0.11900726  0.37143567  0.56880613     0.87000
C83         C  0.11869611  0.43092969  0.62680336     0.87100
C84         C  0.11869614  0.31376588  0.62850319     0.87200
O85         O  0.09930372  0.67260739  0.36849058    -0.75100
O86         O  0.09845652  0.58446214  0.37054243    -0.75100
O87         O  0.09858823  0.62913979  0.41345583    -0.75200
O88         O  0.09910626  0.62785392  0.32542127    -0.75200
O89         O  0.15038893  0.62832363  0.32561751    -0.75100
O90         O  0.14980075  0.62795379  0.41364950    -0.75100
O91         O  0.14973263  0.58404552  0.36980202    -0.75100
O92         O  0.15058014  0.67210833  0.36972224    -0.75200
Ni93       Ni  0.09702912  0.62853370  0.36943548     1.25400
Ni94       Ni  0.15194662  0.62806923  0.36966646     1.25400
C95         C  0.12509356  0.68682422  0.36869203     0.87100
C96         C  0.12399610  0.56976518  0.37108356     0.87000
C97         C  0.12410018  0.62850793  0.42811347     0.87100
C98         C  0.12482704  0.62860962  0.31102337     0.87200
O99         O  0.10339526  0.66838414  0.61862281    -0.75100
O100        O  0.10047342  0.58022340  0.62125711    -0.75100
O101        O  0.10218000  0.62555288  0.66385938    -0.75200
O102        O  0.10136524  0.62309731  0.57599823    -0.75200
O103        O  0.15256725  0.62220529  0.57548887    -0.75100
O104        O  0.15342561  0.62257931  0.66357595    -0.75100
O105        O  0.15149165  0.57869191  0.62005326    -0.75100
O106        O  0.15465771  0.66653836  0.61939588    -0.75200
Ni107      Ni  0.10001974  0.62438366  0.61994022     1.25400
Ni108      Ni  0.15485410  0.62247376  0.61955444     1.25400
C109        C  0.12956156  0.68194806  0.61878357     0.87100
C110        C  0.12562595  0.56477448  0.62119256     0.87000
C111        C  0.12784676  0.62392922  0.67813635     0.87100
C112        C  0.12682814  0.62228609  0.56118046     0.87200
O113        O  0.61836286  0.09603527  0.41780188    -0.75100
O114        O  0.62108164  0.09717651  0.32962451    -0.75100
O115        O  0.66374648  0.09608119  0.37497361    -0.75200
O116        O  0.57556751  0.09669147  0.37254800    -0.75200
O117        O  0.57595555  0.14793477  0.37400084    -0.75100
O118        O  0.66404599  0.14729267  0.37467199    -0.75100
O119        O  0.62043488  0.14823602  0.33028069    -0.75100
O120        O  0.61942378  0.14725474  0.41809536    -0.75200
Ni121      Ni  0.61965645  0.09464707  0.37369165     1.25400
Ni122      Ni  0.61997605  0.14947298  0.37425455     1.25400
C123        C  0.61843848  0.12158814  0.43247732     0.87100
C124        C  0.62136550  0.12297454  0.31527989     0.87000
C125        C  0.67847332  0.12159265  0.37488720     0.87100
C126        C  0.56125474  0.12242350  0.37353167     0.87200
O127        O  0.62441925  0.09985426  0.66825362    -0.75100
O128        O  0.62365905  0.09885503  0.58023895    -0.75100
O129        O  0.66814548  0.09968681  0.62392679    -0.75200
O130        O  0.57997636  0.09930497  0.62456579    -0.75200
O131        O  0.57975187  0.15054846  0.62437499    -0.75100
O132        O  0.66772194  0.15097099  0.62262620    -0.75100
O133        O  0.62291080  0.15008589  0.57963002    -0.75100
O134        O  0.62437936  0.15107501  0.66768497    -0.75200
Ni135      Ni  0.62406374  0.09759300  0.62427527     1.25400
Ni136      Ni  0.62370407  0.15249024  0.62359063     1.25400
C137        C  0.62432369  0.12561727  0.68251230     0.87100
C138        C  0.62324963  0.12429989  0.56540415     0.87000
C139        C  0.68240274  0.12545820  0.62319812     0.87100
C140        C  0.56533646  0.12488399  0.62419278     0.87200
O141        O  0.32692322  0.15592398  0.37481678    -0.75100
O142        O  0.41500271  0.15224922  0.37269912    -0.75100
O143        O  0.37002111  0.15444668  0.32966598    -0.75200
O144        O  0.37209527  0.15372938  0.41778905    -0.75200
O145        O  0.37051532  0.10253792  0.41733349    -0.75100
O146        O  0.36742336  0.10324885  0.32930466    -0.75100
O147        O  0.41294337  0.10102155  0.37161777    -0.75100
O148        O  0.32506542  0.10470842  0.37475018    -0.75200
Ni149      Ni  0.37106993  0.15592289  0.37375008     1.25400
Ni150      Ni  0.36890246  0.10107046  0.37326580     1.25400
C151        C  0.31147720  0.13084483  0.37519799     0.87100
C152        C  0.42844883  0.12604810  0.37161891     0.87000
C153        C  0.36812818  0.12897050  0.31498389     0.87100
C154        C  0.37211574  0.12797073  0.43211509     0.87200
O155        O  0.32969476  0.10053767  0.62355892    -0.75100
O156        O  0.41773007  0.10106613  0.62407718    -0.75100
O157        O  0.37337677  0.09999407  0.66793609    -0.75200
O158        O  0.37383518  0.10180936  0.57967837    -0.75200
O159        O  0.37300710  0.15298808  0.58077678    -0.75100
O160        O  0.37401040  0.15126919  0.66871328    -0.75100
O161        O  0.41755425  0.15229914  0.62445613    -0.75100
O162        O  0.32940448  0.15180805  0.62554421    -0.75200
Ni163      Ni  0.37370167  0.09901747  0.62375366     1.25400
Ni164      Ni  0.37348533  0.15390704  0.62485427     1.25400
C165        C  0.31509347  0.12607846  0.62464891     0.87100
C166        C  0.43218383  0.12672815  0.62475396     0.87000
C167        C  0.37363134  0.12543200  0.68281432     0.87100
C168        C  0.37292584  0.12773065  0.56563899     0.87200
O169        O  0.85241554  0.66633580  0.37561156    -0.75100
O170        O  0.85180929  0.57824848  0.37744407    -0.75100
O171        O  0.85190280  0.62326610  0.42070426    -0.75200
O172        O  0.85222588  0.62134941  0.33268485    -0.75200
O173        O  0.90350910  0.62079157  0.33270402    -0.75100
O174        O  0.90315348  0.62283920  0.42079387    -0.75100
O175        O  0.90305471  0.57781015  0.37757885    -0.75100
O176        O  0.90370241  0.66593424  0.37592109    -0.75200
Ni177      Ni  0.85026918  0.62230946  0.37665926     1.25400
Ni178      Ni  0.90518294  0.62184030  0.37678456     1.25400
C179        C  0.87816833  0.68063557  0.37519088     0.87100
C180        C  0.87731416  0.56348284  0.37717114     0.87000
C181        C  0.87748669  0.62376571  0.43527271     0.87100
C182        C  0.87788325  0.62037192  0.31820531     0.87200
O183        O  0.85010882  0.67068085  0.62741632    -0.75100
O184        O  0.85014479  0.58243932  0.62674808    -0.75100
O185        O  0.84962946  0.62592386  0.67074657    -0.75200
O186        O  0.85026161  0.62660511  0.58286392    -0.75200
O187        O  0.90151331  0.62588526  0.58295200    -0.75100
O188        O  0.90094630  0.62689424  0.67102099    -0.75100
O189        O  0.90138592  0.58253399  0.62766373    -0.75100
O190        O  0.90139185  0.67048987  0.62660728    -0.75200
Ni191      Ni  0.84820240  0.62650007  0.62685261     1.25400
Ni192      Ni  0.90313389  0.62651226  0.62701195     1.25400
C193        C  0.87583415  0.68509330  0.62759567     0.87100
C194        C  0.87581134  0.56795897  0.62788893     0.87000
C195        C  0.87516861  0.62576355  0.68529655     0.87100
C196        C  0.87591292  0.62555091  0.56839115     0.87200
O197        O  0.84887739  0.32857500  0.37605356    -0.75100
O198        O  0.85165172  0.41651597  0.37667291    -0.75100
O199        O  0.84996056  0.37287818  0.33234318    -0.75200
O200        O  0.85066220  0.37226274  0.42032103    -0.75200
O201        O  0.90192261  0.37125063  0.42001303    -0.75100
O202        O  0.90121541  0.37045805  0.33196329    -0.75100
O203        O  0.90287723  0.41499819  0.37586769    -0.75100
O204        O  0.90011539  0.32691940  0.37640262    -0.75200
Ni205      Ni  0.84847483  0.37262237  0.37634793     1.25400
Ni206      Ni  0.90337364  0.37087197  0.37599481     1.25400
C207        C  0.87402658  0.31323885  0.37655893     0.87100
C208        C  0.87768798  0.43028715  0.37669279     0.87000
C209        C  0.87547924  0.37128703  0.31769222     0.87100
C210        C  0.87635378  0.37162073  0.43467610     0.87200
O211        O  0.90139716  0.37562211  0.67006670    -0.75100
O212        O  0.90189951  0.37748245  0.58205508    -0.75100
O213        O  0.90131040  0.42054262  0.62695176    -0.75200
O214        O  0.90189160  0.33242393  0.62500352    -0.75200
O215        O  0.85061528  0.33208036  0.62391638    -0.75100
O216        O  0.85006171  0.42000707  0.62734482    -0.75100
O217        O  0.85063735  0.37765037  0.58182489    -0.75100
O218        O  0.85010507  0.37427376  0.66981264    -0.75200
Ni219      Ni  0.90345868  0.37650985  0.62607268     1.25400
Ni220      Ni  0.84853301  0.37600613  0.62578143     1.25400
C221        C  0.87566474  0.37480439  0.68440904     0.87100
C222        C  0.87636642  0.37801895  0.56742291     0.87000
C223        C  0.87552160  0.43481496  0.62702491     0.87100
C224        C  0.87635655  0.31778515  0.62348018     0.87200
O225        O  0.33197277  0.90592399  0.37282937    -0.75100
O226        O  0.41999042  0.90462910  0.37483782    -0.75100
O227        O  0.37674850  0.90491235  0.32970531    -0.75200
O228        O  0.37483644  0.90529798  0.41793359    -0.75200
O229        O  0.37408372  0.85408364  0.41802048    -0.75100
O230        O  0.37616858  0.85368896  0.33009193    -0.75100
O231        O  0.41931971  0.85346394  0.37530334    -0.75100
O232        O  0.33128092  0.85464595  0.37319230    -0.75200
Ni233      Ni  0.37597442  0.90702264  0.37380097     1.25400
Ni234      Ni  0.37524730  0.85215924  0.37411374     1.25400
C235        C  0.31715344  0.88049803  0.37301959     0.87100
C236        C  0.43424772  0.87888273  0.37586084     0.87000
C237        C  0.37598339  0.87919034  0.31534468     0.87100
C238        C  0.37376980  0.87969807  0.43252132     0.87200
O239        O  0.33455185  0.85356829  0.62652150    -0.75100
O240        O  0.42237192  0.85309095  0.62317967    -0.75100
O241        O  0.37985394  0.85435533  0.66875190    -0.75200
O242        O  0.37692179  0.85273228  0.58072444    -0.75200
O243        O  0.37759591  0.90393807  0.57975814    -0.75100
O244        O  0.37950583  0.90561105  0.66771150    -0.75100
O245        O  0.42275946  0.90434121  0.62245119    -0.75100
O246        O  0.33452503  0.90483266  0.62484864    -0.75200
Ni247      Ni  0.37843914  0.85162512  0.62479814     1.25400
Ni248      Ni  0.37863627  0.90652150  0.62365881     1.25400
C249        C  0.32008926  0.87919597  0.62658131     0.87100
C250        C  0.43707855  0.87856333  0.62214060     0.87000
C251        C  0.37947329  0.88028530  0.68273821     0.87100
C252        C  0.37711462  0.87808225  0.56568936     0.87200
O253        O  0.62807391  0.85186154  0.66931337    -0.75100
O254        O  0.62917946  0.84974051  0.58126079    -0.75100
O255        O  0.67277706  0.85067449  0.62595382    -0.75200
O256        O  0.58465358  0.85088089  0.62491822    -0.75200
O257        O  0.58472579  0.90212919  0.62437771    -0.75100
O258        O  0.67287945  0.90192222  0.62393891    -0.75100
O259        O  0.62850321  0.90098854  0.58021846    -0.75100
O260        O  0.62899666  0.90312860  0.66825593    -0.75200
Ni261      Ni  0.62870389  0.84895972  0.62537794     1.25400
Ni262      Ni  0.62881070  0.90386430  0.62414333     1.25400
C263        C  0.62853258  0.87779417  0.68327188     0.87100
C264        C  0.62835018  0.87507699  0.56623611     0.87000
C265        C  0.68732029  0.87627839  0.62536829     0.87100
C266        C  0.57014699  0.87652725  0.62481724     0.87200
O267        O  0.62692350  0.84759595  0.41893818    -0.75100
O268        O  0.62505626  0.84714441  0.33092305    -0.75100
O269        O  0.66991897  0.84624763  0.37407425    -0.75200
O270        O  0.58189944  0.84856863  0.37586359    -0.75200
O271        O  0.58299718  0.89971452  0.37437521    -0.75100
O272        O  0.67116047  0.89748829  0.37483498    -0.75100
O273        O  0.62748794  0.89836547  0.33046805    -0.75100
O274        O  0.62700273  0.89885781  0.41865390    -0.75200
Ni275      Ni  0.62585858  0.84558366  0.37496221     1.25400
Ni276      Ni  0.62716046  0.90045066  0.37457776     1.25400
C277        C  0.62761037  0.87328623  0.43329149     0.87100
C278        C  0.62655330  0.87261136  0.31619494     0.87000
C279        C  0.68505641  0.87150010  0.37427154     0.87100
C280        C  0.56784085  0.87443188  0.37484324     0.87200
O281        O  0.13121905  0.82750976  0.65294631    -0.75100
O282        O  0.12815764  0.91563297  0.65841200    -0.75100
O283        O  0.08550209  0.87016930  0.65716864    -0.75200
O284        O  0.17359240  0.87315903  0.65437909    -0.75200
O285        O  0.17195833  0.87660356  0.60328315    -0.75100
O286        O  0.08409136  0.87279334  0.60597955    -0.75100
O287        O  0.12619177  0.91838862  0.60725844    -0.75100
O288        O  0.12972667  0.83073408  0.60179209    -0.75200
Ni289      Ni  0.12965479  0.87146996  0.65758280     1.25400
Ni290      Ni  0.12793787  0.87471100  0.60279492     1.25400
C291        C  0.13122050  0.81464224  0.62640633     0.87100
C292        C  0.12684406  0.93151020  0.63360303     0.87000
C293        C  0.07029244  0.87095375  0.63195737     0.87100
C294        C  0.18727665  0.87578242  0.62838436     0.87200
O295        O  0.07925650  0.12330543  0.65450326    -0.75100
O296        O  0.16759228  0.12420332  0.65557177    -0.75100
O297        O  0.12283691  0.16744119  0.65385926    -0.75200
O298        O  0.12380159  0.07972064  0.65701386    -0.75200
O299        O  0.12411006  0.07789461  0.60576109    -0.75100
O300        O  0.12313212  0.16608194  0.60257323    -0.75100
O301        O  0.16781141  0.12249657  0.60435242    -0.75100
O302        O  0.08008443  0.12167282  0.60328513    -0.75200
Ni303      Ni  0.12338968  0.12368185  0.65706953     1.25400
Ni304      Ni  0.12390581  0.12191520  0.60217468     1.25400
C305        C  0.06515060  0.12299116  0.62861444     0.87100
C306        C  0.18224830  0.12391986  0.62995128     0.87000
C307        C  0.12220914  0.18120479  0.62786146     0.87100
C308        C  0.12353568  0.06432524  0.63195464     0.87200
O309        O  0.82941646  0.12820870  0.64698175    -0.75100
O310        O  0.91726514  0.12562216  0.64817652    -0.75100
O311        O  0.87490976  0.17096851  0.64684541    -0.75200
O312        O  0.87210098  0.08308864  0.64835264    -0.75200
O313        O  0.87321692  0.08206273  0.59711270    -0.75100
O314        O  0.87497075  0.17025872  0.59554075    -0.75100
O315        O  0.91812217  0.12517610  0.59693545    -0.75100
O316        O  0.82998107  0.12710543  0.59571029    -0.75200
Ni317      Ni  0.87335002  0.12703827  0.64938056     1.25400
Ni318      Ni  0.87407797  0.12613480  0.59446530     1.25400
C319        C  0.81519710  0.12800624  0.62120980     0.87100
C320        C  0.93220957  0.12468391  0.62279345     0.87000
C321        C  0.87571266  0.18506840  0.62100220     0.87100
C322        C  0.87230010  0.06805029  0.62304975     0.87200
O323        O  0.92389000  0.87590807  0.60497952    -0.75100
O324        O  0.83572061  0.87649497  0.60124860    -0.75100
O325        O  0.88003587  0.92008059  0.60207329    -0.75200
O326        O  0.87977001  0.83219043  0.60376567    -0.75200
O327        O  0.87754715  0.83292196  0.65500796    -0.75100
O328        O  0.87757069  0.92125386  0.65325479    -0.75100
O329        O  0.83371852  0.87705772  0.65250446    -0.75100
O330        O  0.92160555  0.87715181  0.65613590    -0.75200
Ni331      Ni  0.87991804  0.87612814  0.60120321     1.25400
Ni332      Ni  0.87753962  0.87713706  0.65605544     1.25400
C333        C  0.93730244  0.87647112  0.63121775     0.87100
C334        C  0.82023267  0.87707737  0.62636005     0.87000
C335        C  0.87894938  0.93520581  0.62729239     0.87100
C336        C  0.87891177  0.81804857  0.62958006     0.87200
O337        O  0.40026307  0.17083337  0.12418668    -0.75100
O338        O  0.40043112  0.08273953  0.12546979    -0.75100
O339        O  0.40228950  0.12634948  0.08087291    -0.75200
O340        O  0.39835762  0.12769530  0.16890198    -0.75200
O341        O  0.34710652  0.12652677  0.16676077    -0.75100
O342        O  0.35107841  0.12702574  0.07884442    -0.75100
O343        O  0.34927240  0.08265948  0.12262479    -0.75100
O344        O  0.34899177  0.17072703  0.12301084    -0.75200
Ni345      Ni  0.40217106  0.12684330  0.12495515     1.25400
Ni346      Ni  0.34729840  0.12668658  0.12272818     1.25400
C347        C  0.37460574  0.18527574  0.12324071     0.87100
C348        C  0.37484907  0.06814031  0.12434924     0.87000
C349        C  0.37729030  0.12677368  0.06533886     0.87100
C350        C  0.37207213  0.12771345  0.18227442     0.87200
O351        O  0.35269323  0.13124822  0.91825843    -0.75100
O352        O  0.35181777  0.12785376  0.83029664    -0.75100
O353        O  0.35385321  0.08551810  0.87576576    -0.75200
O354        O  0.35071110  0.17366772  0.87261981    -0.75200
O355        O  0.40198353  0.17521521  0.87308781    -0.75100
O356        O  0.40506603  0.08729549  0.87429076    -0.75100
O357        O  0.40304263  0.13049973  0.82968529    -0.75100
O358        O  0.40395911  0.13199779  0.91770511    -0.75200
Ni359      Ni  0.35042549  0.12950799  0.87428324     1.25400
Ni360      Ni  0.40532242  0.13131613  0.87367408     1.25400
C361        C  0.37845072  0.13224248  0.93248559     0.87100
C362        C  0.37729586  0.12890343  0.81551211     0.87000
C363        C  0.37999024  0.07187962  0.87489275     0.87100
C364        C  0.37591872  0.18893351  0.87247677     0.87200
O365        O  0.40589972  0.83567770  0.87395352    -0.75100
O366        O  0.40737678  0.92396155  0.87405830    -0.75100
O367        O  0.40717794  0.87974944  0.91787342    -0.75200
O368        O  0.40634111  0.87966842  0.82982561    -0.75200
O369        O  0.35508616  0.88215065  0.83029430    -0.75100
O370        O  0.35589939  0.87909201  0.91836414    -0.75100
O371        O  0.35614995  0.92455555  0.87595503    -0.75100
O372        O  0.35457759  0.83670954  0.87266379    -0.75200
Ni373      Ni  0.40855085  0.87976159  0.87385792     1.25400
Ni374      Ni  0.35361246  0.88067967  0.87433002     1.25400
C375        C  0.37993071  0.82178129  0.87314053     0.87100
C376        C  0.38192234  0.93877647  0.87581622     0.87000
C377        C  0.38167208  0.87937461  0.93263022     0.87100
C378        C  0.38059574  0.88066211  0.81558815     0.87200
O379        O  0.35337881  0.87517542  0.07908569    -0.75100
O380        O  0.35000993  0.87708588  0.16719568    -0.75100
O381        O  0.35139723  0.92018144  0.12216483    -0.75200
O382        O  0.35183778  0.83218150  0.12384831    -0.75200
O383        O  0.40309426  0.83232941  0.12460432    -0.75100
O384        O  0.40258075  0.92046798  0.12471793    -0.75100
O385        O  0.40129984  0.87604536  0.16881296    -0.75100
O386        O  0.40461408  0.87639279  0.08081615    -0.75200
Ni387      Ni  0.34982524  0.87617165  0.12305122     1.25400
Ni388      Ni  0.40471904  0.87636826  0.12486531     1.25400
C389        C  0.37954158  0.87524304  0.06545770     0.87100
C390        C  0.37517637  0.87637201  0.18245096     0.87000
C391        C  0.37692083  0.93486901  0.12285630     0.87100
C392        C  0.37752355  0.81773825  0.12373124     0.87200
O393        O  0.87766734  0.34630476  0.17052946    -0.75100
O394        O  0.87603061  0.34590251  0.08261146    -0.75100
O395        O  0.92097738  0.34782320  0.12551418    -0.75200
O396        O  0.83290057  0.34446741  0.12768227    -0.75200
O397        O  0.83102788  0.39572138  0.12567730    -0.75100
O398        O  0.91899739  0.39903198  0.12660514    -0.75100
O399        O  0.87551951  0.39702832  0.08219377    -0.75100
O400        O  0.87433875  0.39746174  0.17027351    -0.75200
Ni401      Ni  0.87699965  0.34429527  0.12658839     1.25400
Ni402      Ni  0.87493217  0.39914115  0.12620135     1.25400
C403        C  0.87549759  0.37190821  0.18490447     0.87100
C404        C  0.87580394  0.37132145  0.06777566     0.87000
C405        C  0.93449629  0.37400240  0.12563936     0.87100
C406        C  0.81755191  0.36958358  0.12676067     0.87200
O407        O  0.91730913  0.34867548  0.87598587    -0.75100
O408        O  0.82914887  0.34724827  0.87590490    -0.75100
O409        O  0.87336408  0.34729619  0.83192463    -0.75200
O410        O  0.87288442  0.34857106  0.91986065    -0.75200
O411        O  0.87191890  0.39970617  0.91938251    -0.75100
O412        O  0.87334128  0.39856932  0.83135001    -0.75100
O413        O  0.82850376  0.39847651  0.87463065    -0.75100
O414        O  0.91658746  0.39993658  0.87604725    -0.75200
Ni415      Ni  0.87323619  0.34612484  0.87595257     1.25400
Ni416      Ni  0.87254377  0.40099718  0.87533140     1.25400
C417        C  0.93146493  0.37452291  0.87589707     0.87100
C418        C  0.81430911  0.37267929  0.87499569     0.87000
C419        C  0.87327960  0.37276078  0.81714661     0.87100
C420        C  0.87204262  0.37428053  0.93423220     0.87200
O421        O  0.12489946  0.35501203  0.08300861    -0.75100
O422        O  0.12777273  0.35397511  0.17110324    -0.75100
O423        O  0.08235916  0.35360882  0.12828975    -0.75200
O424        O  0.17024342  0.35511862  0.12528980    -0.75200
O425        O  0.16953184  0.40638119  0.12660600    -0.75100
O426        O  0.08136728  0.40486706  0.12857346    -0.75100
O427        O  0.12626793  0.40521607  0.17163960    -0.75100
O428        O  0.12458431  0.40622078  0.08363886    -0.75200
Ni429      Ni  0.12635152  0.35260902  0.12696843     1.25400
Ni430      Ni  0.12541120  0.40750178  0.12767030     1.25400
C431        C  0.12417424  0.38081206  0.06877433     0.87100
C432        C  0.12752612  0.37947104  0.18588777     0.87000
C433        C  0.06735750  0.37894698  0.12873327     0.87100
C434        C  0.18433810  0.38094869  0.12495703     0.87200
O435        O  0.16671308  0.40413596  0.87491995    -0.75100
O436        O  0.07856104  0.40317391  0.87823435    -0.75100
O437        O  0.12422150  0.40451977  0.92059673    -0.75200
O438        O  0.12114371  0.40277779  0.83254501    -0.75200
O439        O  0.12289792  0.35152906  0.83357687    -0.75100
O440        O  0.12373607  0.35331009  0.92146872    -0.75100
O441        O  0.07923180  0.35190509  0.87801236    -0.75100
O442        O  0.16721251  0.35289966  0.87705918    -0.75200
Ni443      Ni  0.12260908  0.40550639  0.87653581     1.25400
Ni444      Ni  0.12325616  0.35060799  0.87756759     1.25400
C445        C  0.18145214  0.37862316  0.87548946     0.87100
C446        C  0.06439388  0.37734146  0.87861614     0.87000
C447        C  0.12473674  0.37913098  0.93556211     0.87100
C448        C  0.12209575  0.37684987  0.81858545     0.87200
O449        O  0.65311519  0.82494819  0.12508505    -0.75100
O450        O  0.65277830  0.91282738  0.12456705    -0.75100
O451        O  0.65268005  0.86918255  0.16885177    -0.75200
O452        O  0.65298259  0.86881633  0.08064550    -0.75200
O453        O  0.60177000  0.86926874  0.08064440    -0.75100
O454        O  0.60141988  0.86836391  0.16860546    -0.75100
O455        O  0.60171914  0.91284362  0.12487179    -0.75100
O456        O  0.60185033  0.82467448  0.12413904    -0.75200
Ni457      Ni  0.65471125  0.86892025  0.12477314     1.25400
Ni458      Ni  0.59986599  0.86876430  0.12457668     1.25400
C459        C  0.62758718  0.81032473  0.12486577     0.87100
C460        C  0.62731008  0.92752334  0.12460320     0.87000
C461        C  0.62694037  0.86861456  0.18325102     0.87100
C462        C  0.62738680  0.86954059  0.06608168     0.87200
O463        O  0.64800853  0.82849362  0.87217704    -0.75100
O464        O  0.65049164  0.91656008  0.87671195    -0.75100
O465        O  0.64936754  0.87023517  0.91821279    -0.75200
O466        O  0.64942076  0.87494239  0.83045388    -0.75200
O467        O  0.59812477  0.87515164  0.83038494    -0.75100
O468        O  0.59817852  0.87232984  0.91849470    -0.75100
O469        O  0.59920557  0.91776264  0.87563966    -0.75100
O470        O  0.59690995  0.82971043  0.87305178    -0.75200
Ni471      Ni  0.65113481  0.87250194  0.87436550     1.25400
Ni472      Ni  0.59627029  0.87380467  0.87441611     1.25400
C473        C  0.62206073  0.81443121  0.87214715     0.87100
C474        C  0.62517005  0.93162846  0.87667897     0.87000
C475        C  0.62381382  0.87043729  0.93287921     0.87100
C476        C  0.62383254  0.87548465  0.81594853     0.87200
O477        O  0.64949014  0.16746953  0.87336392    -0.75100
O478        O  0.65147640  0.07922252  0.87467946    -0.75100
O479        O  0.65072739  0.12260107  0.82989146    -0.75200
O480        O  0.65025537  0.12397385  0.91794902    -0.75200
O481        O  0.59904212  0.12183871  0.91780520    -0.75100
O482        O  0.59941154  0.12302585  0.82972830    -0.75100
O483        O  0.60020568  0.07838087  0.87311992    -0.75100
O484        O  0.59825409  0.16632430  0.87433312    -0.75200
Ni485      Ni  0.65233157  0.12336548  0.87395086     1.25400
Ni486      Ni  0.59741465  0.12232873  0.87373868     1.25400
C487        C  0.62352042  0.18143438  0.87425591     0.87100
C488        C  0.62608640  0.06431816  0.87374310     0.87000
C489        C  0.62513438  0.12269757  0.81534829     0.87100
C490        C  0.62457728  0.12321316  0.93241003     0.87200
O491        O  0.64967627  0.16401779  0.12349552    -0.75100
O492        O  0.64871248  0.07601054  0.12419965    -0.75100
O493        O  0.64917756  0.11971319  0.07980825    -0.75200
O494        O  0.64944660  0.12038615  0.16780098    -0.75200
O495        O  0.59808680  0.11985906  0.16809337    -0.75100
O496        O  0.59791457  0.12068772  0.08002520    -0.75100
O497        O  0.59764705  0.07645163  0.12370636    -0.75100
O498        O  0.59837393  0.16441730  0.12470366    -0.75200
Ni499      Ni  0.65108436  0.12000874  0.12379710     1.25400
Ni500      Ni  0.59617592  0.12040531  0.12410194     1.25400
C501        C  0.62414030  0.17868409  0.12422849     0.87100
C502        C  0.62300144  0.06155170  0.12413675     0.87000
C503        C  0.62351391  0.11988981  0.06540420     0.87100
C504        C  0.62382230  0.12004567  0.18231231     0.87200
O505        O  0.12748184  0.60111410  0.07619280    -0.75100
O506        O  0.12562507  0.60260169  0.16425663    -0.75100
O507        O  0.08278237  0.60125975  0.11952047    -0.75200
O508        O  0.17068816  0.60236168  0.12093511    -0.75200
O509        O  0.17012501  0.65353721  0.11892418    -0.75100
O510        O  0.08197800  0.65247404  0.11972743    -0.75100
O511        O  0.12627905  0.65389121  0.16339375    -0.75100
O512        O  0.12578190  0.65224263  0.07544315    -0.75200
Ni513      Ni  0.12670934  0.60001408  0.12026462     1.25400
Ni514      Ni  0.12603955  0.65487032  0.11934685     1.25400
C515        C  0.12682997  0.62650060  0.06122664     0.87100
C516        C  0.12539377  0.62849796  0.17827701     0.87000
C517        C  0.06783210  0.62663442  0.11952597     0.87100
C518        C  0.18494956  0.62810231  0.11965370     0.87200
O519        O  0.16742023  0.65036592  0.87055289    -0.75100
O520        O  0.07947673  0.64849297  0.86923983    -0.75100
O521        O  0.12266660  0.64850693  0.91373355    -0.75200
O522        O  0.12425301  0.65030100  0.82599567    -0.75200
O523        O  0.12562221  0.59915225  0.82496783    -0.75100
O524        O  0.12376660  0.59733333  0.91311629    -0.75100
O525        O  0.08040118  0.59729745  0.86838719    -0.75100
O526        O  0.16868703  0.59909278  0.87016963    -0.75200
Ni527      Ni  0.12340690  0.65119609  0.86989661     1.25400
Ni528      Ni  0.12462994  0.59635489  0.86905676     1.25400
C529        C  0.18251749  0.62509086  0.87098550     0.87100
C530        C  0.06536054  0.62267315  0.86868462     0.87000
C531        C  0.12293212  0.62272774  0.92799088     0.87100
C532        C  0.12519033  0.62508985  0.81091467     0.87200
O533        O  0.91749818  0.59576981  0.87572467    -0.75100
O534        O  0.82935957  0.59625932  0.87595561    -0.75100
O535        O  0.87342908  0.59672958  0.83180551    -0.75200
O536        O  0.87360253  0.59570355  0.92002141    -0.75200
O537        O  0.87406989  0.64682098  0.92032778    -0.75100
O538        O  0.87359028  0.64800383  0.83260782    -0.75100
O539        O  0.82955307  0.64751487  0.87696624    -0.75100
O540        O  0.91777960  0.64699678  0.87609560    -0.75200
Ni541      Ni  0.87342170  0.59427069  0.87585659     1.25400
Ni542      Ni  0.87370695  0.64913500  0.87650765     1.25400
C543        C  0.93220357  0.62127811  0.87594096     0.87100
C544        C  0.81493037  0.62192766  0.87681219     0.87000
C545        C  0.87403022  0.62263068  0.81774572     0.87100
C546        C  0.87399995  0.62123710  0.93479241     0.87200
O547        O  0.87795563  0.59286110  0.17114795    -0.75100
O548        O  0.87716413  0.59209878  0.08303485    -0.75100
O549        O  0.92152730  0.59438881  0.12656756    -0.75200
O550        O  0.83337052  0.59071062  0.12765071    -0.75200
O551        O  0.83163779  0.64191774  0.12624412    -0.75100
O552        O  0.91945448  0.64556925  0.12710803    -0.75100
O553        O  0.87625173  0.64325355  0.08276682    -0.75100
O554        O  0.87490492  0.64405868  0.17069705    -0.75200
Ni555      Ni  0.87757563  0.59066387  0.12711479     1.25400
Ni556      Ni  0.87547211  0.64549685  0.12668755     1.25400
C557        C  0.87615884  0.61857608  0.18539869     0.87100
C558        C  0.87713606  0.61759621  0.06830045     0.87000
C559        C  0.93502419  0.62058142  0.12690476     0.87100
C560        C  0.81798196  0.61584749  0.12722345     0.87200
O561        O  0.41877574  0.37581221  0.14985016    -0.75100
O562        O  0.33094475  0.37844764  0.14840309    -0.75100
O563        O  0.37342989  0.33279520  0.14966343    -0.75200
O564        O  0.37591125  0.42095331  0.14822219    -0.75200
O565        O  0.37644616  0.41997340  0.09698620    -0.75100
O566        O  0.37525923  0.33214299  0.09837997    -0.75100
O567        O  0.33175776  0.37688551  0.09712616    -0.75100
O568        O  0.41991991  0.37527953  0.09869212    -0.75200
Ni569      Ni  0.37477881  0.37695947  0.15086787     1.25400
Ni570      Ni  0.37589546  0.37600662  0.09597462     1.25400
C571        C  0.43396399  0.37559287  0.12456935     0.87100
C572        C  0.31691658  0.37868852  0.12256675     0.87000
C573        C  0.37392165  0.31801641  0.12415829     0.87100
C574        C  0.37586720  0.43498854  0.12229005     0.87200
O575        O  0.37699822  0.67069820  0.09616342    -0.75100
O576        O  0.37700040  0.58256552  0.09589103    -0.75100
O577        O  0.33286069  0.62670290  0.09483580    -0.75200
O578        O  0.42087304  0.62667429  0.09714059    -0.75200
O579        O  0.41944094  0.62713749  0.14833505    -0.75100
O580        O  0.33148992  0.62541305  0.14612800    -0.75100
O581        O  0.37631168  0.58252920  0.14713725    -0.75100
O582        O  0.37443635  0.67041998  0.14743360    -0.75200
Ni583      Ni  0.37695421  0.62667214  0.09416030     1.25400
Ni584      Ni  0.37537374  0.62641080  0.14907161     1.25400
C585        C  0.37546649  0.68499856  0.12186546     0.87100
C586        C  0.37719902  0.56802695  0.12154504     0.87000
C587        C  0.31773723  0.62564552  0.12012241     0.87100
C588        C  0.43472685  0.62705720  0.12312240     0.87200
O589        O  0.67098211  0.61844197  0.10056856    -0.75100
O590        O  0.58305314  0.61901439  0.09910491    -0.75100
O591        O  0.62707779  0.66270916  0.09940813    -0.75200
O592        O  0.62680764  0.57458155  0.10045278    -0.75200
O593        O  0.62458646  0.57529851  0.15172612    -0.75100
O594        O  0.62718292  0.66319969  0.15068636    -0.75100
O595        O  0.58195761  0.62040482  0.15027898    -0.75100
O596        O  0.67013324  0.61777071  0.15187061    -0.75200
Ni597      Ni  0.62704555  0.61864611  0.09805913     1.25400
Ni598      Ni  0.62597500  0.61920788  0.15297459     1.25400
C599        C  0.68503796  0.61798720  0.12641010     0.87100
C600        C  0.56792272  0.61976599  0.12437601     0.87000
C601        C  0.62681922  0.67746069  0.12490773     0.87100
C602        C  0.62522037  0.56050479  0.12629988     0.87200
O603        O  0.67006937  0.36919554  0.15670714    -0.75100
O604        O  0.58188829  0.37065483  0.15632477    -0.75100
O605        O  0.62517739  0.32579463  0.15671932    -0.75200
O606        O  0.62651839  0.41396113  0.15638846    -0.75200
O607        O  0.62748018  0.41357173  0.10507849    -0.75100
O608        O  0.62548488  0.32573788  0.10547127    -0.75100
O609        O  0.58232593  0.37061049  0.10517509    -0.75100
O610        O  0.67025992  0.36860033  0.10550032    -0.75200
Ni611      Ni  0.62591755  0.36990362  0.15838879     1.25400
Ni612      Ni  0.62636141  0.36963789  0.10351161     1.25400
C613        C  0.68474110  0.36836702  0.13112495     0.87100
C614        C  0.56746871  0.37079241  0.13067308     0.87000
C615        C  0.62503914  0.31125681  0.13110503     0.87100
C616        C  0.62743492  0.42820079  0.13061429     0.87200
O617        O  0.37511196  0.67318543  0.84682656    -0.75100
O618        O  0.37368971  0.58530321  0.85088724    -0.75100
O619        O  0.33024413  0.62986017  0.84792977    -0.75200
O620        O  0.41836152  0.62850755  0.84984875    -0.75200
O621        O  0.41715689  0.63161622  0.90103865    -0.75100
O622        O  0.32913724  0.63110292  0.89919881    -0.75100
O623        O  0.37326556  0.58734462  0.90209873    -0.75100
O624        O  0.37327878  0.67540044  0.89790380    -0.75200
Ni625      Ni  0.37435116  0.62913644  0.84705137     1.25400
Ni626      Ni  0.37311957  0.63147175  0.90188317     1.25400
C627        C  0.37465607  0.68889591  0.87169803     0.87100
C628        C  0.37379461  0.57180008  0.87706943     0.87000
C629        C  0.31519936  0.63050176  0.87328558     0.87100
C630        C  0.43224194  0.63012485  0.87576627     0.87200
O631        O  0.66704474  0.62050658  0.85179365    -0.75100
O632        O  0.57899112  0.62135083  0.85295156    -0.75100
O633        O  0.62306988  0.66511349  0.84943372    -0.75200
O634        O  0.62261835  0.57722095  0.85526093    -0.75200
O635        O  0.62231354  0.58029715  0.90643754    -0.75100
O636        O  0.62470709  0.66835818  0.90064221    -0.75100
O637        O  0.57941891  0.62558278  0.90407716    -0.75100
O638        O  0.66755654  0.62321878  0.90300806    -0.75200
Ni639      Ni  0.62292592  0.62096897  0.85054787     1.25400
Ni640      Ni  0.62351733  0.62449139  0.90537871     1.25400
C641        C  0.68181178  0.62128317  0.87725578     0.87100
C642        C  0.56472542  0.62343761  0.87865599     0.87000
C643        C  0.62404201  0.68114979  0.87411018     0.87100
C644        C  0.62214468  0.56424719  0.88171524     0.87200
O645        O  0.66728054  0.36978765  0.90337311    -0.75100
O646        O  0.57912263  0.37297862  0.90531135    -0.75100
O647        O  0.62167189  0.32744818  0.90186459    -0.75200
O648        O  0.62462844  0.41547024  0.90704031    -0.75200
O649        O  0.62361799  0.41818046  0.85584525    -0.75100
O650        O  0.62139285  0.33034296  0.85066368    -0.75100
O651        O  0.57832161  0.37564432  0.85412562    -0.75100
O652        O  0.66633562  0.37315569  0.85221345    -0.75200
Ni653      Ni  0.62319575  0.37131441  0.90623696     1.25400
Ni654      Ni  0.62232983  0.37443064  0.85141018     1.25400
C655        C  0.68131501  0.37074681  0.87742664     0.87100
C656        C  0.56418721  0.37476828  0.87999513     0.87000
C657        C  0.62163358  0.31442758  0.87543888     0.87100
C658        C  0.62481738  0.43130741  0.88218707     0.87200
O659        O  0.37401856  0.33703603  0.85154141    -0.75100
O660        O  0.37210991  0.42486640  0.85411684    -0.75100
O661        O  0.41717426  0.38209981  0.85362359    -0.75200
O662        O  0.32913978  0.38012877  0.85221425    -0.75200
O663        O  0.32832083  0.37806090  0.90346422    -0.75100
O664        O  0.41635177  0.38094542  0.90487163    -0.75100
O665        O  0.37083767  0.42366857  0.90534754    -0.75100
O666        O  0.37389286  0.33549666  0.90281717    -0.75200
Ni667      Ni  0.37314855  0.38107944  0.85106936     1.25400
Ni668      Ni  0.37230216  0.37950621  0.90597039     1.25400
C669        C  0.37450182  0.32178290  0.87673017     0.87100
C670        C  0.37100456  0.43878888  0.88003803     0.87000
C671        C  0.43128887  0.38200327  0.87946843     0.87100
C672        C  0.31425685  0.37852119  0.87760741     0.87200
C673        C  0.53016154  0.37643043  0.88045917    -0.06800
C674        C  0.51538166  0.39579493  0.85923106    -0.17900
C675        C  0.48321969  0.39882238  0.85887768     0.10400
C676        C  0.46532627  0.38189575  0.88009768    -0.06700
C677        C  0.48016599  0.36330282  0.90188254    -0.17900
C678        C  0.51213619  0.35989129  0.90190645     0.10500
S679        S  0.46552283  0.42573231  0.83258625    -0.32900
S680        S  0.52815275  0.33248237  0.92852573    -0.32900
H681        H  0.54979752  0.32085272  0.90748451     0.28500
H682        H  0.49271514  0.43565233  0.81810132     0.28500
H683        H  0.52917211  0.40897922  0.84322779     0.19100
H684        H  0.46667599  0.35028595  0.91828912     0.19100
C685        C  0.62250343  0.53022988  0.88323254    -0.06800
C686        C  0.64060461  0.51448619  0.86162081    -0.17900
C687        C  0.64317641  0.48251115  0.86206244     0.10400
C688        C  0.62610590  0.46526115  0.88366314    -0.06700
C689        C  0.60828709  0.48087288  0.90567272    -0.17900
C690        C  0.60610554  0.51308164  0.90556771     0.10500
S691        S  0.66998281  0.46526178  0.83549884    -0.32900
S692        S  0.58051075  0.53054387  0.93317316    -0.32900
H693        H  0.56954946  0.55342755  0.91314390     0.28500
H694        H  0.67989277  0.44252386  0.85624424     0.28500
H695        H  0.65356607  0.52723599  0.84460050     0.19100
H696        H  0.59493773  0.46786230  0.92223170     0.19100
C697        C  0.37426228  0.53778371  0.87837957    -0.06800
C698        C  0.35753131  0.52276417  0.90162743    -0.17900
C699        C  0.35537337  0.49061171  0.90254853     0.10400
C700        C  0.37100234  0.47281655  0.88020843    -0.06700
C701        C  0.38794347  0.48789173  0.85722569    -0.17900
C702        C  0.39005021  0.51988883  0.85625437     0.10500
S703        S  0.33079851  0.47398329  0.93153741    -0.32900
S704        S  0.41473659  0.53618333  0.82718847    -0.32900
H705        H  0.42684621  0.55869581  0.84688104     0.28500
H706        H  0.31842953  0.45133673  0.91203722     0.28500
H707        H  0.34504595  0.53619230  0.91853054     0.19100
H708        H  0.40048323  0.47457228  0.84026732     0.19100
C709        C  0.46616280  0.62946493  0.87651874    -0.06800
C710        C  0.48147547  0.60774498  0.85822833    -0.17900
C711        C  0.51338314  0.60424511  0.85966561     0.10400
C712        C  0.53080353  0.62382484  0.87882184    -0.06700
C713        C  0.51554012  0.64558443  0.89716652    -0.17900
C714        C  0.48351350  0.64881694  0.89600429     0.10500
S715        S  0.53017984  0.57325497  0.83775970    -0.32900
S716        S  0.46643440  0.67925568  0.91844149    -0.32900
H717        H  0.44377451  0.68675659  0.89663628     0.28500
H718        H  0.55323347  0.56630624  0.85930291     0.28500
H719        H  0.46843490  0.59267348  0.84340729     0.19100
H720        H  0.52874254  0.66096201  0.91162155     0.19100
C721        C  0.62465038  0.52666664  0.12692459    -0.06800
C722        C  0.64705402  0.51059809  0.11016325    -0.17900
C723        C  0.64923599  0.47856346  0.11194274     0.10400
C724        C  0.62802328  0.46203318  0.13019325    -0.06700
C725        C  0.60564272  0.47808719  0.14700353    -0.17900
C726        C  0.60348444  0.51013909  0.14526759     0.10500
S727        S  0.68055563  0.46025864  0.09176830    -0.32900
S728        S  0.57229150  0.52842667  0.16566396    -0.32900
H729        H  0.56732280  0.55157061  0.14362682     0.28500
H730        H  0.68542140  0.43723200  0.11395446     0.28500
H731        H  0.66368476  0.52317763  0.09648441     0.19100
H732        H  0.58903058  0.46548846  0.16068820     0.19100
C733        C  0.46883376  0.62639524  0.12371558    -0.06800
C734        C  0.48430205  0.61206087  0.09921537    -0.17900
C735        C  0.51628861  0.60870653  0.09912827     0.10400
C736        C  0.53380537  0.62064986  0.12381205    -0.06700
C737        C  0.51833564  0.63502408  0.14830268    -0.17900
C738        C  0.48632276  0.63837395  0.14837464     0.10500
S739        S  0.53283139  0.58744733  0.06757835    -0.32900
S740        S  0.46964297  0.65967082  0.17981359    -0.32900
H741        H  0.44911735  0.67628438  0.16111236     0.28500
H742        H  0.55296117  0.57035380  0.08626887     0.28500
H743        H  0.47128248  0.60236180  0.08034357     0.19100
H744        H  0.53135955  0.64470902  0.16717432     0.19100
C745        C  0.46815123  0.37523209  0.12571175    -0.06800
C746        C  0.48244427  0.36401013  0.15244047    -0.17900
C747        C  0.51457447  0.36222202  0.15501168     0.10400
C748        C  0.53324519  0.37177423  0.13002227    -0.06700
C749        C  0.51889272  0.38296743  0.10331860    -0.17900
C750        C  0.48690723  0.38530338  0.10105715     0.10500
S751        S  0.53082798  0.34639367  0.18987508    -0.32900
S752        S  0.47192681  0.40281060  0.06661893    -0.32900
H753        H  0.45114718  0.42193527  0.08248699     0.28500
H754        H  0.50314335  0.34262759  0.20621964     0.28500
H755        H  0.46828108  0.35606167  0.17132464     0.19100
H756        H  0.53275862  0.39089713  0.08416169     0.19100
C757        C  0.37543333  0.46900367  0.12171503    -0.06800
C758        C  0.39104613  0.48490420  0.14500834    -0.17900
C759        C  0.39287949  0.51699378  0.14499070     0.10400
C760        C  0.37798720  0.53401331  0.12160948    -0.06700
C761        C  0.36236290  0.51813374  0.09828705    -0.17900
C762        C  0.36056542  0.48600585  0.09827555     0.10500
S763        S  0.41609031  0.53454233  0.17448408    -0.32900
S764        S  0.33744394  0.46843498  0.06871522    -0.32900
H765        H  0.32406652  0.44643803  0.08833099     0.28500
H766        H  0.42933336  0.55656752  0.15477984     0.28500
H767        H  0.40284599  0.47218693  0.16287980     0.19100
H768        H  0.35049299  0.53088533  0.08048594     0.19100
C769        C  0.71897262  0.61782903  0.12677378    -0.06800
C770        C  0.73434839  0.59624067  0.14517906    -0.17900
C771        C  0.76656096  0.59479080  0.14580899     0.10400
C772        C  0.78395630  0.61531464  0.12744023    -0.06700
C773        C  0.76844169  0.63684377  0.10906687    -0.17900
C774        C  0.73634938  0.63844351  0.10865493     0.10500
S775        S  0.78381944  0.56697810  0.17124669    -0.32900
S776        S  0.71903749  0.66812135  0.08544091    -0.32900
H777        H  0.69539320  0.67496516  0.10647532     0.28500
H778        H  0.80786848  0.58621215  0.18098300     0.28500
H779        H  0.72114465  0.58036095  0.15917319     0.19100
H780        H  0.78147396  0.65279805  0.09499475     0.19100
C781        C  0.78090177  0.62181510  0.87756505    -0.06800
C782        C  0.76504174  0.60149058  0.85816842    -0.17900
C783        C  0.73283918  0.60046181  0.85785477     0.10400
C784        C  0.71583127  0.62045096  0.87709902    -0.06700
C785        C  0.73171279  0.64036606  0.89683726    -0.17900
C786        C  0.76386550  0.64119945  0.89736219     0.10500
S787        S  0.71492471  0.57204994  0.83366568    -0.32900
S788        S  0.78167257  0.66647066  0.92484115    -0.32900
H789        H  0.80476290  0.64538033  0.93307870     0.28500
H790        H  0.69202260  0.56463831  0.85526210     0.28500
H791        H  0.77784364  0.58618743  0.84320564     0.19100
H792        H  0.71896135  0.65538123  0.91211088     0.19100
C793        C  0.87495699  0.62099890  0.96896204    -0.06800
C794        C  0.88629832  0.59467491  0.98391214    -0.17900
C795        C  0.88842338  0.59314282  0.01601236     0.10400
C796        C  0.87749505  0.61792435  0.03413538    -0.06700
C797        C  0.86618418  0.64418702  0.01916821    -0.17900
C798        C  0.86530659  0.64627335  0.98714926     0.10500
S799        S  0.90694372  0.55969045  0.03197256    -0.32900
S800        S  0.85078397  0.68167940  0.97139449    -0.32900
H801        H  0.87968217  0.69017018  0.95948328     0.28500
H802        H  0.92495275  0.57661405  0.05284481     0.28500
H803        H  0.89463148  0.57540553  0.97045186     0.19100
H804        H  0.85781877  0.66350311  0.03253828     0.19100
C805        C  0.28124792  0.63004071  0.87280761    -0.06800
C806        C  0.26575389  0.61011770  0.89297222    -0.17900
C807        C  0.23361051  0.60819285  0.89311654     0.10400
C808        C  0.21639989  0.62623596  0.87229316    -0.06700
C809        C  0.23187065  0.64641241  0.85241352    -0.17900
C810        C  0.26395975  0.64867719  0.85259601     0.10500
S811        S  0.21596355  0.58332924  0.92125559    -0.32900
S812        S  0.28130639  0.67673332  0.82749618    -0.32900
H813        H  0.30417306  0.68561191  0.84854212     0.28500
H814        H  0.19111239  0.60306139  0.92758341     0.28500
H815        H  0.27880410  0.59594751  0.90878685     0.19100
H816        H  0.21881474  0.66066619  0.83667936     0.19100
C817        C  0.96629705  0.62126242  0.87506102    -0.06800
C818        C  0.98114594  0.64452374  0.85831505    -0.17900
C819        C  0.01322189  0.64510417  0.85507587     0.10400
C820        C  0.03123584  0.62215444  0.86943514    -0.06700
C821        C  0.01638815  0.59878492  0.88611044    -0.17900
C822        C  0.98433091  0.59833774  0.88946971     0.10500
S823        S  0.03044190  0.67459173  0.83140173    -0.32900
S824        S  0.96818745  0.56909191  0.91406263    -0.32900
H825        H  0.94611601  0.58857195  0.92756683     0.28500
H826        H  0.00307644  0.68552681  0.81808609     0.28500
H827        H  0.96749106  0.66216478  0.84733738     0.19100
H828        H  0.02994110  0.58135447  0.89764411     0.19100
C829        C  0.28389328  0.62506172  0.11932550    -0.06800
C830        C  0.26854212  0.64669881  0.10106322    -0.17900
C831        C  0.23643318  0.64864469  0.10113926     0.10400
C832        C  0.21899383  0.62809800  0.11939364    -0.06700
C833        C  0.23446698  0.60593477  0.13706131    -0.17900
C834        C  0.26658552  0.60413704  0.13715379     0.10500
S835        S  0.21909200  0.67673836  0.07630539    -0.32900
S836        S  0.28404589  0.57386617  0.15947717    -0.32900
H837        H  0.30813747  0.56816702  0.13860533     0.28500
H838        H  0.20820873  0.69449997  0.10107884     0.28500
H839        H  0.28169701  0.66268415  0.08714242     0.19100
H840        H  0.22142480  0.58975835  0.15085621     0.19100
C841        C  0.96902998  0.62224129  0.12624006    -0.06800
C842        C  0.98300286  0.64694882  0.11074988    -0.17900
C843        C  0.01498498  0.64877267  0.10746211     0.10400
C844        C  0.03379961  0.62563905  0.12045078    -0.06700
C845        C  0.01977883  0.60101681  0.13598561    -0.17900
C846        C  0.98788769  0.59936033  0.13952910     0.10500
S847        S  0.02998114  0.68023367  0.08498097    -0.32900
S848        S  0.97306404  0.56849800  0.16292412    -0.32900
H849        H  0.95084038  0.58682073  0.17770385     0.28500
H850        H  0.05217762  0.66231571  0.06964342     0.28500
H851        H  0.96885275  0.66451229  0.10017938     0.19100
H852        H  0.03384729  0.58334299  0.14647199     0.19100
C853        C  0.12658929  0.62583947  0.02709479    -0.06800
C854        C  0.11463723  0.59972011  0.01229115    -0.17900
C855        C  0.11234187  0.59815592  0.98023343     0.10400
C856        C  0.12326049  0.62286345  0.96208397    -0.06700
C857        C  0.13560451  0.64875345  0.97686969    -0.17900
C858        C  0.13740193  0.65062508  0.00894677     0.10500
S859        S  0.09359494  0.56481582  0.96432775    -0.32900
S860        S  0.15433085  0.68463538  0.02577681    -0.32900
H861        H  0.16781815  0.69627541  0.99874679     0.28500
H862        H  0.07580080  0.58176148  0.94327564     0.28500
H863        H  0.10591341  0.58069909  0.02584807     0.19100
H864        H  0.14414445  0.66770036  0.96314815     0.19100
C865        C  0.62433735  0.21256877  0.12521253    -0.06800
C866        C  0.60540207  0.22745688  0.14672128    -0.17900
C867        C  0.60580015  0.25947517  0.14986448     0.10400
C868        C  0.62500710  0.27728570  0.13061032    -0.06700
C869        C  0.64367077  0.26235250  0.10886290    -0.17900
C870        C  0.64352010  0.23033914  0.10591915     0.10500
S871        S  0.58003213  0.27637236  0.17749325    -0.32900
S872        S  0.66715339  0.21373707  0.07612502    -0.32900
H873        H  0.64590910  0.19072562  0.06814116     0.28500
H874        H  0.60413049  0.28790799  0.19568263     0.28500
H875        H  0.59056600  0.21399325  0.16158738     0.19100
H876        H  0.65830044  0.27578684  0.09376904     0.19100
C877        C  0.62183041  0.28052276  0.87379509    -0.06800
C878        C  0.60020310  0.26413642  0.89121955    -0.17900
C879        C  0.60041711  0.23197905  0.89211825     0.10400
C880        C  0.62273344  0.21548187  0.87503743    -0.06700
C881        C  0.64473470  0.23196262  0.85801920    -0.17900
C882        C  0.64434500  0.26415508  0.85702496     0.10500
S883        S  0.57272248  0.21363257  0.91697892    -0.32900
S884        S  0.67446119  0.28320387  0.83591108    -0.32900
H885        H  0.65393936  0.29790494  0.81574238     0.28500
H886        H  0.59346009  0.19155413  0.92835087     0.28500
H887        H  0.58330261  0.27649919  0.90471141     0.19100
H888        H  0.66216840  0.21968854  0.84509042     0.19100
C889        C  0.62429619  0.12335383  0.96644764    -0.06800
C890        C  0.60210150  0.10559181  0.98182119    -0.17900
C891        C  0.60177423  0.10329205  0.01393118     0.10400
C892        C  0.62366387  0.11975080  0.03140694    -0.06700
C893        C  0.64592350  0.13739052  0.01604801    -0.17900
C894        C  0.64618848  0.13979378  0.98397426     0.10500
S895        S  0.57405521  0.07754364  0.03097353    -0.32900
S896        S  0.67389787  0.16564913  0.96710959    -0.32900
H897        H  0.65361649  0.17731082  0.94477144     0.28500
H898        H  0.59400267  0.06649128  0.05390936     0.28500
H899        H  0.58547355  0.09251282  0.96866766     0.19100
H900        H  0.66267734  0.15030693  0.02919797     0.19100
C901        C  0.62166442  0.78010691  0.87174504    -0.06800
C902        C  0.64850354  0.76446404  0.88086597    -0.17900
C903        C  0.65006438  0.73233916  0.88112183     0.10400
C904        C  0.62431899  0.71495442  0.87204328    -0.06700
C905        C  0.59765898  0.73018801  0.86236113    -0.17900
C906        C  0.59582412  0.76238659  0.86251800     0.10500
S907        S  0.68568911  0.71483329  0.89299722    -0.32900
S908        S  0.55993943  0.77906614  0.85046417    -0.32900
H909        H  0.55358981  0.79098864  0.87989430     0.28500
H910        H  0.68370902  0.68962789  0.87287545     0.28500
H911        H  0.66857263  0.77732017  0.88809264     0.19100
H912        H  0.57775935  0.71684837  0.85548337     0.19100
C913        C  0.62573581  0.96555329  0.87684379    -0.06800
C914        C  0.60811622  0.98113214  0.85478275    -0.17900
C915        C  0.60847124  0.01331053  0.85281727     0.10400
C916        C  0.62650114  0.03037346  0.87366876    -0.06700
C917        C  0.64449343  0.01480952  0.89547134    -0.17900
C918        C  0.64397470  0.98265328  0.89755851     0.10500
S919        S  0.58721269  0.03227542  0.82255886    -0.32900
S920        S  0.66570234  0.96496197  0.92811462    -0.32900
H921        H  0.64456548  0.94111019  0.93365031     0.28500
H922        H  0.57706576  0.00550200  0.80755215     0.28500
H923        H  0.59452544  0.96794170  0.83867305     0.19100
H924        H  0.65816813  0.02782996  0.91168094     0.19100
C925        C  0.62775685  0.77639664  0.12516795    -0.06800
C926        C  0.60910734  0.76059846  0.10417286    -0.17900
C927        C  0.60796945  0.72843050  0.10385060     0.10400
C928        C  0.62619581  0.71144279  0.12475910    -0.06700
C929        C  0.64427866  0.72731610  0.14623655    -0.17900
C930        C  0.64537257  0.75946382  0.14652545     0.10500
S931        S  0.58152954  0.71059750  0.07741098    -0.32900
S932        S  0.66791416  0.77776622  0.17595983    -0.32900
H933        H  0.68916691  0.78986713  0.15475156     0.28500
H934        H  0.57182797  0.68767309  0.09810377     0.28500
H935        H  0.59510503  0.77344128  0.08804565     0.19100
H936        H  0.65796742  0.71458159  0.16271003     0.19100
C937        C  0.62704564  0.96184156  0.12429265    -0.06800
C938        C  0.59852190  0.97692585  0.12197963    -0.17900
C939        C  0.59616155  0.00900525  0.12235166     0.10400
C940        C  0.62310289  0.02724362  0.12470371    -0.06700
C941        C  0.65159643  0.01215082  0.12717161    -0.17900
C942        C  0.65396996  0.98010097  0.12673370     0.10500
S943        S  0.55788941  0.02461955  0.11966002    -0.32900
S944        S  0.69228834  0.96458219  0.12938765    -0.32900
H945        H  0.69042950  0.95012808  0.10048781     0.28500
H946        H  0.56001365  0.03966482  0.14824288     0.28500
H947        H  0.57754635  0.96364527  0.12005762     0.19100
H948        H  0.67258301  0.02540499  0.12915017     0.19100
C949        C  0.62436687  0.86919815  0.96691080    -0.06800
C950        C  0.64925727  0.88292693  0.98221366    -0.17900
C951        C  0.65061959  0.88406986  0.01432200     0.10400
C952        C  0.62698636  0.87031082  0.03199329    -0.06700
C953        C  0.60211628  0.85651999  0.01667189    -0.17900
C954        C  0.60068238  0.85551230  0.98454420     0.10500
S955        S  0.68212480  0.90515779  0.03101340    -0.32900
S956        S  0.56883521  0.83502125  0.96773244    -0.32900
H957        H  0.58667747  0.82062752  0.94484802     0.28500
H958        H  0.66377112  0.92007052  0.05314710     0.28500
H959        H  0.66737276  0.89389221  0.96904443     0.19100
H960        H  0.58395784  0.84562146  0.02983329     0.19100
C961        C  0.21540357  0.37858605  0.87490098    -0.06800
C962        C  0.23095126  0.35863848  0.89494752    -0.17900
C963        C  0.26307584  0.35778747  0.89606362     0.10400
C964        C  0.28033942  0.37755590  0.87688298    -0.06700
C965        C  0.26483637  0.39714646  0.85646314    -0.17900
C966        C  0.23268462  0.39778478  0.85511138     0.10500
S967        S  0.28052747  0.33014694  0.92156523    -0.32900
S968        S  0.21542083  0.42292019  0.82699769    -0.32900
H969        H  0.19034770  0.40377293  0.82022122     0.28500
H970        H  0.30457588  0.32228532  0.90134750     0.28500
H971        H  0.21795962  0.34350029  0.90989715     0.19100
H972        H  0.27790383  0.41218622  0.84145187     0.19100
C973        C  0.21819426  0.38136803  0.12265874    -0.06800
C974        C  0.23475527  0.40135257  0.14174490    -0.17900
C975        C  0.26692807  0.40162483  0.14150582     0.10400
C976        C  0.28309440  0.38101878  0.12217730    -0.06700
C977        C  0.26653899  0.36171253  0.10242348    -0.17900
C978        C  0.23437799  0.36189912  0.10221120     0.10500
S979        S  0.28588613  0.42948059  0.16563866    -0.32900
S980        S  0.21540610  0.33765988  0.07449560    -0.32900
H981        H  0.19208219  0.35901985  0.06776506     0.28500
H982        H  0.30973477  0.43579919  0.14470190     0.28500
H983        H  0.22254799  0.41674904  0.15709488     0.19100
H984        H  0.27874237  0.34623939  0.08714826     0.19100
C985        C  0.12363497  0.38097344  0.03469285    -0.06800
C986        C  0.13814575  0.35669898  0.01908808    -0.17900
C987        C  0.13987432  0.35602730  0.98700126     0.10400
C988        C  0.12593853  0.37972674  0.96960130    -0.06700
C989        C  0.11163145  0.40415345  0.98516656    -0.17900
C990        C  0.10998985  0.40487720  0.01731043     0.10500
S991        S  0.16173264  0.32515612  0.96999234    -0.32900
S992        S  0.08850961  0.43596436  0.03439161    -0.32900
H993        H  0.07356992  0.41721560  0.05617084     0.28500
H994        H  0.17583674  0.34398553  0.94778255     0.28500
H995        H  0.14911841  0.33845556  0.03200667     0.19100
H996        H  0.10059525  0.42231663  0.97218242     0.19100
C997        C  0.78031306  0.37209628  0.87488266    -0.06800
C998        C  0.76501091  0.35191395  0.89493167    -0.17900
C999        C  0.73283521  0.35039161  0.89579797     0.10400
C1000       C  0.71531420  0.36969310  0.87636467    -0.06700
C1001       C  0.73068430  0.38898829  0.85549857    -0.17900
C1002       C  0.76280805  0.39059329  0.85477193     0.10500
S1003       S  0.71568964  0.32232671  0.92108437    -0.32900
S1004       S  0.78029868  0.41527182  0.82651482    -0.32900
H1005       H  0.79120077  0.43597701  0.84882534     0.28500
H1006       H  0.69161220  0.31450899  0.90099088     0.28500
H1007       H  0.77823976  0.33716448  0.91004063     0.19100
H1008       H  0.71759152  0.40336552  0.83994545     0.19100
C1009       C  0.96546617  0.37517492  0.87591421    -0.06800
C1010       C  0.98052590  0.39644986  0.89495137    -0.17900
C1011       C  0.01266336  0.39711490  0.89705373     0.10400
C1012       C  0.03040715  0.37664425  0.87904848    -0.06700
C1013       C  0.01533693  0.35535624  0.86007655    -0.17900
C1014       C  0.98323943  0.35464474  0.85801827     0.10500
S1015       S  0.02947209  0.42331635  0.92441806    -0.32900
S1016       S  0.96653128  0.32822584  0.83081655    -0.32900
H1017       H  0.94325247  0.34846079  0.82104698     0.28500
H1018       H  0.05316298  0.40326067  0.93354112     0.28500
H1019       H  0.96711647  0.41201805  0.90908969     0.19100
H1020       H  0.02872330  0.33980002  0.84589985     0.19100
C1021       C  0.78377222  0.36844445  0.12708724    -0.06800
C1022       C  0.76891719  0.35523428  0.15246764    -0.17900
C1023       C  0.73677059  0.35450481  0.15445843     0.10400
C1024       C  0.71886540  0.36768555  0.13063570    -0.06700
C1025       C  0.73401692  0.38070631  0.10515272    -0.17900
C1026       C  0.76609269  0.38102484  0.10304270     0.10500
S1027       S  0.72033635  0.33549381  0.18743836    -0.32900
S1028       S  0.78309152  0.39719311  0.06879319    -0.32900
H1029       H  0.80795879  0.37657264  0.06750331     0.28500
H1030       H  0.69807875  0.31946181  0.17031080     0.28500
H1031       H  0.78249988  0.34543691  0.17091790     0.19100
H1032       H  0.72078742  0.39078423  0.08661212     0.19100
C1033       C  0.96848036  0.37551325  0.12521641    -0.06800
C1034       C  0.98312913  0.39745149  0.14379328    -0.17900
C1035       C  0.01521906  0.39869625  0.14597758     0.10400
C1036       C  0.03337513  0.37801384  0.12865451    -0.06700
C1037       C  0.01873300  0.35627483  0.10984653    -0.17900
C1038       C  0.98666287  0.35510273  0.10758151     0.10500
S1039       S  0.03142642  0.42590117  0.17267162    -0.32900
S1040       S  0.97052866  0.32836549  0.08038316    -0.32900
H1041       H  0.94714408  0.34841281  0.07049842     0.28500
H1042       H  0.05473863  0.40600430  0.18297310     0.28500
H1043       H  0.96944322  0.41306436  0.15760611     0.19100
H1044       H  0.03242377  0.34070005  0.09598860     0.19100
C1045       C  0.87197454  0.37410280  0.96842315    -0.06800
C1046       C  0.88279560  0.34761735  0.98344562    -0.17900
C1047       C  0.88446611  0.34580165  0.01558197     0.10400
C1048       C  0.87515484  0.37134224  0.03357249    -0.06700
C1049       C  0.86437817  0.39785456  0.01852590    -0.17900
C1050       C  0.86220667  0.39937871  0.98647987     0.10500
S1051       S  0.89958193  0.31097806  0.03264299    -0.32900
S1052       S  0.84539768  0.43375126  0.97056218    -0.32900
H1053       H  0.82587643  0.41770382  0.95037491     0.28500
H1054       H  0.90606554  0.29508957  0.00522383     0.28500
H1055       H  0.89046034  0.32824454  0.96984895     0.19100
H1056       H  0.85663910  0.41742063  0.03187676     0.19100
C1057       C  0.37738065  0.78374404  0.12259207    -0.06800
C1058       C  0.35402635  0.76790237  0.13836249    -0.17900
C1059       C  0.35251368  0.73577444  0.13801887     0.10400
C1060       C  0.37512229  0.71884511  0.12198702    -0.06700
C1061       C  0.39828416  0.73455128  0.10596498    -0.17900
C1062       C  0.39953798  0.76669972  0.10584786     0.10500
S1063       S  0.32057259  0.71779387  0.15748203    -0.32900
S1064       S  0.42917668  0.78437833  0.08281583    -0.32900
H1065       H  0.41001148  0.80756567  0.07094286     0.28500
H1066       H  0.31694713  0.69390167  0.13600975     0.28500
H1067       H  0.33670166  0.78065162  0.15098638     0.19100
H1068       H  0.41552425  0.72164409  0.09337304     0.19100
C1069       C  0.37903707  0.78799665  0.87288224    -0.06800
C1070       C  0.36726230  0.77300585  0.84695357    -0.17900
C1071       C  0.36643588  0.74086066  0.84526773     0.10400
C1072       C  0.37647281  0.72303723  0.87068372    -0.06700
C1073       C  0.38824368  0.73837500  0.89661576    -0.17900
C1074       C  0.38963939  0.77045988  0.89794892     0.10500
S1075       S  0.35162807  0.72435914  0.81037069    -0.32900
S1076       S  0.40424376  0.78771306  0.93266872    -0.32900
H1077       H  0.38358119  0.81254212  0.93265100     0.28500
H1078       H  0.38006333  0.71098561  0.80253881     0.28500
H1079       H  0.35908457  0.78645915  0.82764785     0.19100
H1080       H  0.39632784  0.72530189  0.91620913     0.19100
C1081       C  0.38182933  0.87861111  0.96661271    -0.06800
C1082       C  0.36064653  0.85943340  0.98165801    -0.17900
C1083       C  0.36030163  0.85679605  0.01372131     0.10400
C1084       C  0.38088689  0.87454267  0.03149786    -0.06700
C1085       C  0.40253602  0.89319612  0.01645212    -0.17900
C1086       C  0.40302310  0.89570235  0.98436260     0.10500
S1087       S  0.33422524  0.82913706  0.03034231    -0.32900
S1088       S  0.43001053  0.92248238  0.96776150    -0.32900
H1089       H  0.40984403  0.93326368  0.94491376     0.28500
H1090       H  0.35424963  0.81993995  0.05399824     0.28500
H1091       H  0.34480583  0.84565789  0.96827257     0.19100
H1092       H  0.41845182  0.90688418  0.02982955     0.19100
C1093       C  0.37528863  0.22290001  0.87247857    -0.06800
C1094       C  0.39497434  0.23837347  0.89279807    -0.17900
C1095       C  0.39548488  0.27047878  0.89437942     0.10400
C1096       C  0.37558361  0.28784364  0.87549919    -0.06700
C1097       C  0.35612266  0.27242753  0.85489278    -0.17900
C1098       C  0.35582518  0.24025585  0.85305956     0.10500
S1099       S  0.42303318  0.28788170  0.91990974    -0.32900
S1100       S  0.33076685  0.22303939  0.82489262    -0.32900
H1101       H  0.35006263  0.19810042  0.81788464     0.28500
H1102       H  0.43069940  0.31173181  0.89947209     0.28500
H1103       H  0.41018069  0.22530412  0.90759831     0.19100
H1104       H  0.34095449  0.28557040  0.84012255     0.19100
C1105       C  0.38112163  0.03784974  0.87482801    -0.06800
C1106       C  0.35970719  0.02169491  0.89279521    -0.17900
C1107       C  0.36027698  0.98957683  0.89460077     0.10400
C1108       C  0.38217381  0.97279842  0.87727693    -0.06700
C1109       C  0.40386668  0.98895134  0.85962558    -0.17900
C1110       C  0.40334613  0.02110633  0.85788060     0.10500
S1111       S  0.33345197  0.97162310  0.92069551    -0.32900
S1112       S  0.43035144  0.03911851  0.83202844    -0.32900
H1113       H  0.40924337  0.06085861  0.82067526     0.28500
H1114       H  0.35408438  0.94885758  0.93081345     0.28500
H1115       H  0.34290673  0.03424490  0.90629879     0.19100
H1116       H  0.42057569  0.97638602  0.84602711     0.19100
C1117       C  0.37332835  0.28413653  0.12413471    -0.06800
C1118       C  0.39513023  0.26848776  0.10620160    -0.17900
C1119       C  0.39574375  0.23636297  0.10502083     0.10400
C1120       C  0.37442543  0.21923402  0.12265251    -0.06700
C1121       C  0.35235626  0.23493434  0.14030149    -0.17900
C1122       C  0.35138043  0.26710577  0.14097733     0.10500
S1123       S  0.42331465  0.21877785  0.07946137    -0.32900
S1124       S  0.32082174  0.28500437  0.16260733    -0.32900
H1125       H  0.31617162  0.30934495  0.14181664     0.28500
H1126       H  0.40323734  0.19563623  0.06910760     0.28500
H1127       H  0.41172027  0.28143425  0.09280556     0.19100
H1128       H  0.33566097  0.22204014  0.15360894     0.19100
C1129       C  0.37502349  0.03404327  0.12457120    -0.06800
C1130       C  0.39909971  0.01861264  0.10949131    -0.17900
C1131       C  0.39980648  0.98647465  0.10759063     0.10400
C1132       C  0.37647953  0.96894444  0.12202609    -0.06700
C1133       C  0.35226385  0.98437255  0.13684101    -0.17900
C1134       C  0.35140746  0.01649314  0.13853949     0.10500
S1135       S  0.42994761  0.96947347  0.08470423    -0.32900
S1136       S  0.32045462  0.03339982  0.16038572    -0.32900
H1137       H  0.33912855  0.05564442  0.17455824     0.28500
H1138       H  0.41088562  0.94689661  0.07158972     0.28500
H1139       H  0.41701185  0.03173028  0.09812926     0.19100
H1140       H  0.33430446  0.97126527  0.14814109     0.19100
C1141       C  0.37840375  0.12791303  0.03134499    -0.06800
C1142       C  0.35622535  0.14565296  0.01597999    -0.17900
C1143       C  0.35647078  0.14864258  0.98395589     0.10400
C1144       C  0.37886610  0.13279853  0.96647971    -0.06700
C1145       C  0.40145812  0.11561483  0.98183938    -0.17900
C1146       C  0.40130518  0.11272019  0.01389666     0.10500
S1147       S  0.32861715  0.17428679  0.96704855    -0.32900
S1148       S  0.42977671  0.08777355  0.03077101    -0.32900
H1149       H  0.40947502  0.07456047  0.05226863     0.28500
H1150       H  0.34859452  0.18559200  0.94418974     0.28500
H1151       H  0.33900949  0.15805014  0.02910597     0.19100
H1152       H  0.41865779  0.10323538  0.96867868     0.19100
C1153       C  0.87250893  0.03402239  0.62382292    -0.06800
C1154       C  0.89061215  0.01826786  0.60221132    -0.17900
C1155       C  0.89417368  0.98631905  0.60353097     0.10400
C1156       C  0.87840652  0.96924164  0.62634899    -0.06700
C1157       C  0.86018458  0.98498742  0.64787742    -0.17900
C1158       C  0.85681008  0.01697165  0.64669455     0.10500
S1159       S  0.92072765  0.96912779  0.57666646    -0.32900
S1160       S  0.83080991  0.03433000  0.67397825    -0.32900
H1161       H  0.81887248  0.05582924  0.65298015     0.28500
H1162       H  0.93285677  0.94794872  0.59791820     0.28500
H1163       H  0.90315489  0.03106509  0.58486512     0.19100
H1164       H  0.84758233  0.97217399  0.66517573     0.19100
C1165       C  0.96620800  0.12356355  0.62376191    -0.06800
C1166       C  0.98125323  0.13900727  0.64778097    -0.17900
C1167       C  0.01333052  0.13994617  0.64956012     0.10400
C1168       C  0.03116420  0.12405163  0.62748747    -0.06700
C1169       C  0.01614289  0.10872532  0.60335935    -0.17900
C1170       C  0.98405093  0.10805402  0.60138814     0.10500
S1171       S  0.02986105  0.16351456  0.67934601    -0.32900
S1172       S  0.96751518  0.08558225  0.57076658    -0.32900
H1173       H  0.94439826  0.07258244  0.58932765     0.28500
H1174       H  0.05278854  0.17620050  0.66030860     0.28500
H1175       H  0.96792219  0.15137662  0.66484420     0.19100
H1176       H  0.02949323  0.09640179  0.58627129     0.19100
C1177       C  0.03629456  0.87048269  0.63275984    -0.06800
C1178       C  0.02092348  0.88787419  0.65522741    -0.17900
C1179       C  0.98878267  0.89024637  0.65543974     0.10400
C1180       C  0.97134999  0.87515135  0.63250581    -0.06700
C1181       C  0.98683711  0.85779081  0.61009836    -0.17900
C1182       C  0.01882719  0.85471444  0.61039175     0.10500
S1183       S  0.97155408  0.91488825  0.68388919    -0.32900
S1184       S  0.03577653  0.82912039  0.58250028    -0.32900
H1185       H  0.05837847  0.81775913  0.60262758     0.28500
H1186       H  0.95876789  0.89000777  0.70017310     0.28500
H1187       H  0.03408197  0.90039165  0.67228615     0.19100
H1188       H  0.97385750  0.84577480  0.59257260     0.19100
C1189       C  0.12559558  0.96547679  0.63484932    -0.06800
C1190       C  0.10673790  0.98072967  0.61355007    -0.17900
C1191       C  0.10463083  0.01278610  0.61299780     0.10400
C1192       C  0.12264422  0.03039836  0.63343341    -0.06700
C1193       C  0.14077647  0.01522608  0.65541828    -0.17900
C1194       C  0.14264826  0.98307131  0.65621272     0.10500
S1195       S  0.07725078  0.02970208  0.58688082    -0.32900
S1196       S  0.16859592  0.96616284  0.68372938    -0.32900
H1197       H  0.18042637  0.94408214  0.66322524     0.28500
H1198       H  0.06804914  0.05316012  0.60718856     0.28500
H1199       H  0.09292394  0.96750849  0.59759115     0.19100
H1200       H  0.15454166  0.02853935  0.67133929     0.19100
C1201       C  0.62678642  0.86876010  0.21726261    -0.06800
C1202       C  0.64778068  0.88781613  0.23264878    -0.17900
C1203       C  0.64829519  0.88956797  0.26479627     0.10400
C1204       C  0.62718049  0.87198989  0.28223083    -0.06700
C1205       C  0.60633251  0.85277762  0.26686713    -0.17900
C1206       C  0.60595852  0.85086992  0.23473648     0.10500
S1207       S  0.67706382  0.91395919  0.28198358    -0.32900
S1208       S  0.57917013  0.82429467  0.21761668    -0.32900
H1209       H  0.59956246  0.81407419  0.19462564     0.28500
H1210       H  0.68294704  0.89474694  0.30726107     0.28500
H1211       H  0.66390344  0.90157393  0.21949740     0.19100
H1212       H  0.59024266  0.83900270  0.28003104     0.19100
C1213       C  0.62779455  0.87814898  0.71720458    -0.06800
C1214       C  0.60727960  0.85817080  0.73210906    -0.17900
C1215       C  0.60517373  0.85714322  0.76414494     0.10400
C1216       C  0.62424167  0.87632382  0.78204513    -0.06700
C1217       C  0.64479634  0.89636144  0.76722128    -0.17900
C1218       C  0.64675648  0.89757042  0.73508463     0.10500
S1219       S  0.57856084  0.82997292  0.78065279    -0.32900
S1220       S  0.67454618  0.92367459  0.71866760    -0.32900
H1221       H  0.68246566  0.90508643  0.69348401     0.28500
H1222       H  0.59858032  0.82040951  0.80415417     0.28500
H1223       H  0.59284586  0.84302529  0.71870880     0.19100
H1224       H  0.65952094  0.91114076  0.78080450     0.19100
C1225       C  0.72127234  0.87637968  0.62625510    -0.06800
C1226       C  0.73724296  0.89554071  0.60572137    -0.17900
C1227       C  0.76944035  0.89642752  0.60526475     0.10400
C1228       C  0.78627407  0.87745013  0.62556705    -0.06700
C1229       C  0.77028889  0.85853896  0.64628818    -0.17900
C1230       C  0.73813594  0.85790685  0.64702121     0.10500
S1231       S  0.78753507  0.92318074  0.57923399    -0.32900
S1232       S  0.72029715  0.83378512  0.67572110    -0.32900
H1233       H  0.69513416  0.85319253  0.68142275     0.28500
H1234       H  0.81087800  0.93197538  0.59979167     0.28500
H1235       H  0.72451155  0.91001990  0.58992330     0.19100
H1236       H  0.78300055  0.84414245  0.66218235     0.19100
C1237       C  0.62727958  0.87442036  0.53225580    -0.06800
C1238       C  0.64516662  0.85264073  0.51649124    -0.17900
C1239       C  0.64640943  0.85222715  0.48430955     0.10400
C1240       C  0.62873005  0.87355190  0.46725618    -0.06700
C1241       C  0.61082487  0.89526394  0.48303361    -0.17900
C1242       C  0.60952057  0.89562418  0.51515937     0.10500
S1243       S  0.67236387  0.82515956  0.46655268    -0.32900
S1244       S  0.58318527  0.92236100  0.53280475    -0.32900
H1245       H  0.57318211  0.90151214  0.55542605     0.28500
H1246       H  0.68221623  0.84540133  0.44328473     0.28500
H1247       H  0.65911856  0.83649247  0.52933921     0.19100
H1248       H  0.59683575  0.91140372  0.47021134     0.19100
C1249       C  0.28622392  0.87908679  0.62841889    -0.06800
C1250       C  0.26961562  0.89790095  0.60818600    -0.17900
C1251       C  0.23745447  0.89695810  0.60727942     0.10400
C1252       C  0.22125625  0.87736369  0.62759148    -0.06700
C1253       C  0.23792121  0.85924792  0.64844358    -0.17900
C1254       C  0.27006481  0.85980968  0.64905703     0.10500
S1255       S  0.21833181  0.92227849  0.58076132    -0.32900
S1256       S  0.28886305  0.83596240  0.67731624    -0.32900
H1257       H  0.31325700  0.85629938  0.68306123     0.28500
H1258       H  0.20840737  0.89785256  0.56202724     0.28500
H1259       H  0.28180420  0.91287196  0.59239841     0.19100
H1260       H  0.22580963  0.84443274  0.66441951     0.19100
C1261       C  0.37901014  0.88074718  0.71671855    -0.06800
C1262       C  0.39694543  0.85910177  0.73255050    -0.17900
C1263       C  0.39757842  0.85829232  0.76469221     0.10400
C1264       C  0.38021706  0.87990261  0.78168093    -0.06700
C1265       C  0.36194128  0.90128547  0.76593339    -0.17900
C1266       C  0.36097122  0.90185759  0.73375953     0.10500
S1267       S  0.42001951  0.82834469  0.78253400    -0.32900
S1268       S  0.33543304  0.92936962  0.71613250    -0.32900
H1269       H  0.32561617  0.90977714  0.69242430     0.28500
H1270       H  0.39936645  0.82321946  0.80687415     0.28500
H1271       H  0.41056255  0.84257426  0.71976203     0.19100
H1272       H  0.34826781  0.91768816  0.77882519     0.19100
C1273       C  0.47109127  0.87790458  0.62141145    -0.06800
C1274       C  0.48630057  0.85554165  0.63901445    -0.17900
C1275       C  0.51838761  0.85487596  0.64107154     0.10400
C1276       C  0.53608511  0.87673848  0.62469357    -0.06700
C1277       C  0.52085516  0.89898767  0.60692039    -0.17900
C1278       C  0.48874752  0.89942116  0.60459678     0.10500
S1279       S  0.53506830  0.82684613  0.66659920    -0.32900
S1280       S  0.47193141  0.92672240  0.57833905    -0.32900
H1281       H  0.44876381  0.90671539  0.56788013     0.28500
H1282       H  0.55731955  0.84717770  0.67813815     0.28500
H1283       H  0.47303145  0.83905945  0.65221790     0.19100
H1284       H  0.53409039  0.91563290  0.59392546     0.19100
C1285       C  0.37417783  0.87587822  0.21631539    -0.06800
C1286       C  0.35858535  0.89944472  0.23180739    -0.17900
C1287       C  0.35832690  0.90086889  0.26398254     0.10400
C1288       C  0.37467886  0.87861885  0.28127444    -0.06700
C1289       C  0.38963023  0.85461685  0.26560994    -0.17900
C1290       C  0.38921628  0.85281771  0.23348119     0.10500
S1291       S  0.33539674  0.93066291  0.28142698    -0.32900
S1292       S  0.40728700  0.81997211  0.21572074    -0.32900
H1293       H  0.38575605  0.81723188  0.19178319     0.28500
H1294       H  0.32332730  0.91128795  0.30432780     0.28500
H1295       H  0.34650570  0.91689159  0.21872128     0.19100
H1296       H  0.40167275  0.83700118  0.27848950     0.19100
C1297       C  0.46842333  0.87816024  0.37692046    -0.06800
C1298       C  0.48352070  0.85236257  0.36466590    -0.17900
C1299       C  0.51560233  0.85082328  0.36290839     0.10400
C1300       C  0.53365402  0.87526871  0.37456570    -0.06700
C1301       C  0.51859547  0.90103229  0.38701998    -0.17900
C1302       C  0.48643928  0.90262600  0.38866676     0.10500
S1303       S  0.53168024  0.81782268  0.34363799    -0.32900
S1304       S  0.47019297  0.93584909  0.40743239    -0.37700
H1305       H  0.44825197  0.91889886  0.42417783     0.28500
H1306       H  0.55303526  0.83510633  0.32650288     0.28500
H1307       H  0.47019876  0.83357489  0.35521381     0.19100
H1308       H  0.53198807  0.91980620  0.39640086     0.19100
C1309       C  0.37638002  0.87783202  0.53162281    -0.06800
C1310       C  0.36140635  0.90207202  0.51637344    -0.17900
C1311       C  0.35917641  0.90285893  0.48427303     0.10400
C1312       C  0.37299314  0.87929804  0.46658932    -0.06700
C1313       C  0.38753978  0.85484100  0.48186019    -0.17900
C1314       C  0.38974797  0.85402493  0.51392489     0.10500
S1315       S  0.33699155  0.93364372  0.46759521    -0.32900
S1316       S  0.41168125  0.82299745  0.53047143    -0.32900
H1317       H  0.42731980  0.84187279  0.55157691     0.28500
H1318       H  0.32291657  0.91501453  0.44521316     0.28500
H1319       H  0.35056627  0.92020973  0.52961071     0.19100
H1320       H  0.39842116  0.83670738  0.46865360     0.19100
C1321       C  0.87535656  0.37458315  0.71831537    -0.06800
C1322       C  0.85654106  0.35325417  0.73356827    -0.17900
C1323       C  0.85528610  0.35210924  0.76572054     0.10400
C1324       C  0.87344999  0.37262684  0.78320173    -0.06700
C1325       C  0.89226329  0.39392182  0.76789027    -0.17900
C1326       C  0.89329374  0.39524473  0.73578456     0.10500
S1327       S  0.82915847  0.32485550  0.78289683    -0.32900
S1328       S  0.91690560  0.42467365  0.71856757    -0.32900
H1329       H  0.89590682  0.43174696  0.69505141     0.28500
H1330       H  0.81897702  0.34486328  0.80621316     0.28500
H1331       H  0.84259140  0.33742329  0.72030536     0.19100
H1332       H  0.90619674  0.40983115  0.78107610     0.19100
C1333       C  0.87669488  0.28388175  0.62135889    -0.06800
C1334       C  0.89749245  0.26747511  0.63973332    -0.17900
C1335       C  0.89822631  0.23532417  0.63940980     0.10400
C1336       C  0.87740444  0.21894511  0.62062658    -0.06700
C1337       C  0.85721352  0.23531841  0.60158847    -0.17900
C1338       C  0.85672475  0.26748554  0.60161721     0.10500
S1339       S  0.92702450  0.21659266  0.66256739    -0.32900
S1340       S  0.83102141  0.28617038  0.57505998    -0.32900
H1341       H  0.85204962  0.30943871  0.56724653     0.28500
H1342       H  0.93304041  0.19312931  0.64114345     0.28500
H1343       H  0.91325481  0.27980182  0.65457997     0.19100
H1344       H  0.84159419  0.22297026  0.58662955     0.19100
C1345       C  0.87510785  0.37044867  0.28380581    -0.06800
C1346       C  0.85630317  0.39136363  0.26804294    -0.17900
C1347       C  0.85547133  0.39198947  0.23588133     0.10400
C1348       C  0.87444055  0.37172178  0.21887539    -0.06700
C1349       C  0.89275529  0.35037620  0.23471569    -0.17900
C1350       C  0.89301147  0.34927532  0.26685890     0.10500
S1351       S  0.82865055  0.41811056  0.21809147    -0.32900
S1352       S  0.91556278  0.31947242  0.28480948    -0.32900
H1353       H  0.89433324  0.31358000  0.30854064     0.28500
H1354       H  0.81943135  0.39735269  0.19506719     0.28500
H1355       H  0.84204585  0.40728765  0.28090139     0.19100
H1356       H  0.90693243  0.33431053  0.22195157     0.19100
C1357       C  0.87656833  0.37210441  0.46865162    -0.06800
C1358       C  0.89942456  0.38922422  0.48367761    -0.17900
C1359       C  0.89941184  0.39252910  0.51569717     0.10400
C1360       C  0.87639109  0.37783873  0.53341375    -0.06700
C1361       C  0.85347393  0.36088567  0.51831782    -0.17900
C1362       C  0.85368127  0.35730517  0.48638993     0.10500
S1363       S  0.92825782  0.41727442  0.53220163    -0.32900
S1364       S  0.82526850  0.33195856  0.47003437    -0.32900
H1365       H  0.84529768  0.31912081  0.44804099     0.28500
H1366       H  0.90852337  0.43014324  0.55443786     0.28500
H1367       H  0.91682974  0.40105302  0.47029943     0.19100
H1368       H  0.83583684  0.34930369  0.53156790     0.19100
C1369       C  0.87640359  0.71907758  0.62900435    -0.06800
C1370       C  0.89754890  0.73485778  0.61038978    -0.17900
C1371       C  0.89947007  0.76695921  0.61087173     0.10400
C1372       C  0.87934531  0.78405155  0.62988222    -0.06700
C1373       C  0.85860558  0.76829740  0.64897689    -0.17900
C1374       C  0.85716222  0.73609840  0.64900861     0.10500
S1375       S  0.92911814  0.78464010  0.58787916    -0.32900
S1376       S  0.83137969  0.71815197  0.67610023    -0.32900
H1377       H  0.85159458  0.69408880  0.68377601     0.28500
H1378       H  0.93625022  0.80719693  0.60989049     0.28500
H1379       H  0.91289515  0.72204713  0.59546816     0.19100
H1380       H  0.84338751  0.78116599  0.66397580     0.19100
C1381       C  0.87527373  0.62326040  0.78387272    -0.06800
C1382       C  0.85685083  0.60260807  0.76738259    -0.17900
C1383       C  0.85659588  0.60267497  0.73523649     0.10400
C1384       C  0.87495424  0.62410759  0.71906149    -0.06700
C1385       C  0.89365860  0.64448877  0.73549992    -0.17900
C1386       C  0.89418734  0.64418100  0.76761811     0.10500
S1387       S  0.83309441  0.57423419  0.71635660    -0.32900
S1388       S  0.92051417  0.67006356  0.78636354    -0.32900
H1389       H  0.92960494  0.64850300  0.80864457     0.28500
H1390       H  0.85379429  0.56870718  0.69215671     0.28500
H1391       H  0.84247029  0.58632490  0.77964060     0.19100
H1392       H  0.90802979  0.66075728  0.72320525     0.19100
C1393       C  0.87575156  0.53392907  0.62904992    -0.06800
C1394       C  0.85259737  0.51813975  0.61311185    -0.17900
C1395       C  0.85233372  0.48603541  0.61146511     0.10400
C1396       C  0.87525527  0.46886369  0.62687794    -0.06700
C1397       C  0.89830290  0.48462514  0.64303954    -0.17900
C1398       C  0.89856690  0.51677059  0.64470756     0.10500
S1399       S  0.82328747  0.46866287  0.58759407    -0.32900
S1400       S  0.92772465  0.53415007  0.66848876    -0.32900
H1401       H  0.90835877  0.55704490  0.68062795     0.28500
H1402       H  0.84331847  0.44687855  0.57444205     0.28500
H1403       H  0.83513659  0.53094257  0.60079575     0.19100
H1404       H  0.91581638  0.47177689  0.65523314     0.19100
C1405       C  0.87763037  0.61900346  0.28425724    -0.06800
C1406       C  0.85617431  0.63712043  0.26837530    -0.17900
C1407       C  0.85492472  0.63718943  0.23625058     0.10400
C1408       C  0.87569908  0.61877843  0.21931439    -0.06700
C1409       C  0.89680668  0.60022348  0.23515195    -0.17900
C1410       C  0.89792450  0.60001864  0.26732343     0.10500
S1411       S  0.82561954  0.66052485  0.21846323    -0.32900
S1412       S  0.92482982  0.57408878  0.28525880    -0.32900
H1413       H  0.90480472  0.56521093  0.30910464     0.28500
H1414       H  0.81934414  0.63993523  0.19439160     0.28500
H1415       H  0.84013114  0.65133741  0.28108746     0.19100
H1416       H  0.91257806  0.58575579  0.22236315     0.19100
C1417       C  0.87722919  0.52941704  0.37641756    -0.06800
C1418       C  0.90020766  0.51347382  0.39257895    -0.17900
C1419       C  0.90087336  0.48119270  0.39338955     0.10400
C1420       C  0.87831006  0.46433664  0.37719807    -0.06700
C1421       C  0.85527898  0.48029536  0.36121114    -0.17900
C1422       C  0.85473186  0.51242010  0.36024790     0.10500
S1423       S  0.92953096  0.46206343  0.41662705    -0.32900
S1424       S  0.82569664  0.53007666  0.33653328    -0.32900
H1425       H  0.84557484  0.55236825  0.32405082     0.28500
H1426       H  0.94020041  0.48840132  0.43204618     0.28500
H1427       H  0.91737047  0.52639714  0.40508507     0.19100
H1428       H  0.83800764  0.46760688  0.34855676     0.19100
C1429       C  0.87723119  0.62506759  0.46930106    -0.06800
C1430       C  0.85400151  0.60924190  0.48523045    -0.17900
C1431       C  0.85342953  0.60825931  0.51739829     0.10400
C1432       C  0.87611704  0.62421218  0.53438111    -0.06700
C1433       C  0.89935220  0.63999291  0.51845583    -0.17900
C1434       C  0.89992862  0.64096475  0.48630452     0.10500
S1435       S  0.82426906  0.58469054  0.53516307    -0.32900
S1436       S  0.92909839  0.66451130  0.46858330    -0.32900
H1437       H  0.90929955  0.67655430  0.44605974     0.28500
H1438       H  0.84394562  0.57266757  0.55783390     0.28500
H1439       H  0.83670956  0.59663012  0.47251872     0.19100
H1440       H  0.91665190  0.65259694  0.53116555     0.19100
C1441       C  0.37412293  0.12542734  0.71675589    -0.06800
C1442       C  0.39392639  0.14610895  0.73156071    -0.17900
C1443       C  0.39556590  0.14768151  0.76358884     0.10400
C1444       C  0.37680982  0.12817726  0.78160107    -0.06700
C1445       C  0.35688029  0.10749894  0.76685043    -0.17900
C1446       C  0.35528905  0.10593232  0.73471482     0.10500
S1447       S  0.42141045  0.17576597  0.77977448    -0.32900
S1448       S  0.32788681  0.07961955  0.71817612    -0.32900
H1449       H  0.31881326  0.09943431  0.69427325     0.28500
H1450       H  0.40205323  0.18422314  0.80424156     0.28500
H1451       H  0.40818820  0.16142475  0.71804968     0.19100
H1452       H  0.34234873  0.09249107  0.78048352     0.19100
C1453       C  0.28122028  0.12585014  0.62524226    -0.06800
C1454       C  0.26599735  0.14222158  0.64851062    -0.17900
C1455       C  0.23385425  0.14219623  0.65069104     0.10400
C1456       C  0.21631778  0.12498292  0.62936489    -0.06700
C1457       C  0.23171995  0.10874427  0.60601262    -0.17900
C1458       C  0.26378756  0.10917164  0.60357994     0.10500
S1459       S  0.21679291  0.16571776  0.68025380    -0.32900
S1460       S  0.28093373  0.08882571  0.57171786    -0.32900
H1461       H  0.30514050  0.10972725  0.56707627     0.28500
H1462       H  0.19346491  0.17733711  0.66114182     0.28500
H1463       H  0.27928808  0.15521060  0.66511550     0.19100
H1464       H  0.21863795  0.09567866  0.58931279     0.19100
C1465       C  0.36739458  0.12931525  0.28099820    -0.06800
C1466       C  0.38635383  0.15025747  0.26534943    -0.17900
C1467       C  0.38777253  0.15069628  0.23320842     0.10400
C1468       C  0.37039835  0.12926315  0.21610755    -0.06700
C1469       C  0.35078476  0.10891138  0.23165808    -0.17900
C1470       C  0.34885736  0.10889800  0.26378129     0.10500
S1471       S  0.41115951  0.17995493  0.21538881    -0.32900
S1472       S  0.32132772  0.08328272  0.28125003    -0.32900
H1473       H  0.31227514  0.10432582  0.30408229     0.28500
H1474       H  0.39079950  0.18549803  0.19090552     0.28500
H1475       H  0.40028647  0.16637071  0.27825893     0.19100
H1476       H  0.33679297  0.09291511  0.21868422     0.19100
C1477       C  0.37347494  0.12781627  0.46621833    -0.06800
C1478       C  0.35927255  0.15194494  0.48233235    -0.17900
C1479       C  0.35806789  0.15227446  0.51451427     0.10400
C1480       C  0.37213187  0.12827841  0.53147633    -0.06700
C1481       C  0.38650671  0.10424931  0.51532290    -0.17900
C1482       C  0.38770665  0.10394187  0.48313822     0.10500
S1483       S  0.33667121  0.18311170  0.53216243    -0.32900
S1484       S  0.40926678  0.07331683  0.46531171    -0.32900
H1485       H  0.42303558  0.09229550  0.44296732     0.28500
H1486       H  0.32195395  0.16414448  0.55387559     0.28500
H1487       H  0.34800959  0.17025021  0.46972956     0.19100
H1488       H  0.39778190  0.08592840  0.52788657     0.19100
C1489       C  0.78121403  0.12812966  0.62124351    -0.06800
C1490       C  0.76588824  0.11018244  0.64330483    -0.17900
C1491       C  0.73378441  0.10900936  0.64453874     0.10400
C1492       C  0.71630780  0.12594764  0.62308476    -0.06700
C1493       C  0.73154741  0.14414857  0.60120514    -0.17900
C1494       C  0.76369270  0.14550694  0.60007924     0.10500
S1495       S  0.71652740  0.08665586  0.67490425    -0.32900
S1496       S  0.78077505  0.17091747  0.57211414    -0.32900
H1497       H  0.80411080  0.18131895  0.59186474     0.28500
H1498       H  0.69281555  0.10784329  0.68078524     0.28500
H1499       H  0.77903316  0.09703227  0.65988594     0.19100
H1500       H  0.71831449  0.15761514  0.58497458     0.19100
C1501       C  0.62450810  0.12564165  0.71656199    -0.06800
C1502       C  0.64170780  0.10300836  0.73194168    -0.17900
C1503       C  0.64245641  0.10160826  0.76417742     0.10400
C1504       C  0.62517194  0.12294566  0.78145613    -0.06700
C1505       C  0.60730063  0.14497991  0.76618162    -0.17900
C1506       C  0.60709960  0.14681640  0.73407019     0.10500
S1507       S  0.66413085  0.07155879  0.78300777    -0.32900
S1508       S  0.58265061  0.17531510  0.71672002    -0.32900
H1509       H  0.60773153  0.19268292  0.70588811     0.28500
H1510       H  0.67594092  0.05783518  0.75618090     0.28500
H1511       H  0.65462725  0.08640166  0.71862211     0.19100
H1512       H  0.59371244  0.16118894  0.77940525     0.19100
C1513       C  0.53131137  0.12505436  0.62374163    -0.06800
C1514       C  0.51574977  0.14821553  0.64000473    -0.17900
C1515       C  0.48360752  0.14903599  0.64135435     0.10400
C1516       C  0.46624583  0.12655525  0.62549402    -0.06700
C1517       C  0.48184417  0.10338343  0.60928175    -0.17900
C1518       C  0.51397261  0.10264807  0.60782446     0.10500
S1519       S  0.46640491  0.17823691  0.66521306    -0.32900
S1520       S  0.53122591  0.07374659  0.58360657    -0.32900
H1521       H  0.55353088  0.09364581  0.57119525     0.28500
H1522       H  0.44393133  0.15844576  0.67734276     0.28500
H1523       H  0.52875946  0.16535165  0.65257965     0.19100
H1524       H  0.46886974  0.08624699  0.59668244     0.19100
C1525       C  0.62397087  0.12022607  0.21599239    -0.06800
C1526       C  0.62795054  0.14830376  0.23103422    -0.17900
C1527       C  0.62738430  0.15023200  0.26313445     0.10400
C1528       C  0.62265245  0.12317615  0.28098369    -0.06700
C1529       C  0.61858625  0.09503549  0.26540872    -0.17900
C1530       C  0.61928689  0.09330091  0.23330093     0.10500
S1531       S  0.63221070  0.18818240  0.27901364    -0.32900
S1532       S  0.61364661  0.05617781  0.21570210    -0.32900
H1533       H  0.63360710  0.06126118  0.19077366     0.28500
H1534       H  0.65638918  0.17954392  0.29837132     0.28500
H1535       H  0.63133772  0.16902368  0.21756457     0.19100
H1536       H  0.61470606  0.07404193  0.27824736     0.19100
C1537       C  0.52727857  0.12274646  0.37409917    -0.06800
C1538       C  0.51114560  0.10314376  0.35419396    -0.17900
C1539       C  0.47899322  0.10420519  0.35226770     0.10400
C1540       C  0.46238773  0.12482403  0.37118527    -0.06700
C1541       C  0.47853282  0.14417805  0.39126379    -0.17900
C1542       C  0.51059813  0.14302855  0.39328640     0.10500
S1543       S  0.46073351  0.07998388  0.32403255    -0.32900
S1544       S  0.52865558  0.16675769  0.42206453    -0.32900
H1545       H  0.55121730  0.14500872  0.43005957     0.28500
H1546       H  0.43794024  0.10147039  0.31592966     0.28500
H1547       H  0.52373378  0.08767066  0.33923106     0.19100
H1548       H  0.46598076  0.15962065  0.40629479     0.19100
C1549       C  0.61838392  0.12192890  0.46649920    -0.06800
C1550       C  0.63446452  0.14564019  0.48133413    -0.17900
C1551       C  0.63705545  0.14663246  0.51331913     0.10400
C1552       C  0.62267317  0.12373016  0.53138860    -0.06700
C1553       C  0.60646419  0.10003574  0.51659571    -0.17900
C1554       C  0.60374703  0.09913853  0.48452687     0.10500
S1555       S  0.66063561  0.17669972  0.52930255    -0.32900
S1556       S  0.57987702  0.06938434  0.46836242    -0.32900
H1557       H  0.56654351  0.08843576  0.44587240     0.28500
H1558       H  0.67450083  0.15750344  0.55127683     0.28500
H1559       H  0.64609129  0.16308170  0.46783987     0.19100
H1560       H  0.59496187  0.08257359  0.53015573     0.19100
C1561       C  0.12773052  0.62379116  0.71192515    -0.06800
C1562       C  0.11194375  0.64731084  0.72719790    -0.17900
C1563       C  0.11145649  0.64888446  0.75927515     0.10400
C1564       C  0.12619560  0.62574454  0.77683925    -0.06700
C1565       C  0.14187861  0.60206709  0.76135992    -0.17900
C1566       C  0.14286662  0.60088498  0.72921091     0.10500
S1567       S  0.09070815  0.68042426  0.77615147    -0.32900
S1568       S  0.16275433  0.56898885  0.71164923    -0.32900
H1569       H  0.14185119  0.56536640  0.68729885     0.28500
H1570       H  0.11764130  0.69419870  0.78759297     0.28500
H1571       H  0.10031717  0.66497165  0.71396673     0.19100
H1572       H  0.15339825  0.58421229  0.77439769     0.19100
C1573       C  0.13093907  0.71588580  0.61900782    -0.06800
C1574       C  0.15061399  0.73035034  0.64007475    -0.17900
C1575       C  0.15173793  0.76243383  0.64256144     0.10400
C1576       C  0.13242226  0.78071982  0.62387356    -0.06700
C1577       C  0.11348452  0.76623088  0.60211943    -0.17900
C1578       C  0.11265861  0.73417126  0.59936365     0.10500
S1579       S  0.17911752  0.77856073  0.66912059    -0.32900
S1580       S  0.08857659  0.71809944  0.56971954    -0.32900
H1581       H  0.10850579  0.69365185  0.56250096     0.28500
H1582       H  0.18708896  0.80348360  0.65010477     0.28500
H1583       H  0.16509811  0.71651617  0.65491313     0.19100
H1584       H  0.09906900  0.77999264  0.58716970     0.19100
C1585       C  0.12482598  0.62978303  0.27706847    -0.06800
C1586       C  0.10341655  0.61172258  0.26108324    -0.17900
C1587       C  0.10265604  0.61141402  0.22893159     0.10400
C1588       C  0.12409785  0.62914731  0.21214075    -0.06700
C1589       C  0.14500031  0.64779322  0.22804026    -0.17900
C1590       C  0.14546149  0.64851379  0.26021199     0.10500
S1591       S  0.07300438  0.58896287  0.21070488    -0.32900
S1592       S  0.17218338  0.67461527  0.27815479    -0.32900
H1593       H  0.15232189  0.68324702  0.30218102     0.28500
H1594       H  0.06748496  0.61041221  0.18715906     0.28500
H1595       H  0.08712632  0.59770330  0.27374037     0.19100
H1596       H  0.16117588  0.66185792  0.21528087     0.19100
C1597       C  0.12419168  0.62739719  0.46218433    -0.06800
C1598       C  0.14821907  0.61152214  0.47683667    -0.17900
C1599       C  0.14941270  0.60870786  0.50895676     0.10400
C1600       C  0.12619137  0.62252280  0.52709283    -0.06700
C1601       C  0.10179777  0.63774626  0.51240076    -0.17900
C1602       C  0.10069058  0.64065001  0.48040564     0.10500
S1603       S  0.17962759  0.58585285  0.52611493    -0.32900
S1604       S  0.06948901  0.66292109  0.46466057    -0.32900
H1605       H  0.08809398  0.67878715  0.44341774     0.28500
H1606       H  0.19487348  0.57787496  0.49869782     0.28500
H1607       H  0.16584196  0.60068238  0.46294543     0.19100
H1608       H  0.08387508  0.64849916  0.52603178     0.19100
C1609       C  0.11882599  0.27988270  0.62940203    -0.06800
C1610       C  0.09989912  0.26361606  0.60899180    -0.17900
C1611       C  0.10034453  0.23143596  0.60797843     0.10400
C1612       C  0.12048223  0.21505448  0.62753873    -0.06700
C1613       C  0.13880976  0.23135946  0.64842793    -0.17900
C1614       C  0.13801329  0.26341771  0.64974899     0.10500
S1615       S  0.07378163  0.21274306  0.58227270    -0.32900
S1616       S  0.16077826  0.28188285  0.67897205    -0.32900
H1617       H  0.13842879  0.30425539  0.68570907     0.28500
H1618       H  0.06647311  0.18864208  0.60256417     0.28500
H1619       H  0.08464831  0.27604837  0.59371790     0.19100
H1620       H  0.15373032  0.21900126  0.66409580     0.19100
C1621       C  0.11928703  0.37530134  0.71979373    -0.06800
C1622       C  0.14008752  0.35639471  0.73559725    -0.17900
C1623       C  0.14172018  0.35655610  0.76769055     0.10400
C1624       C  0.12211791  0.37620006  0.78467591    -0.06700
C1625       C  0.10175420  0.39561212  0.76887765    -0.17900
C1626       C  0.10021799  0.39546957  0.73672703     0.10500
S1627       S  0.16991218  0.33168652  0.78523368    -0.32900
S1628       S  0.07462372  0.42258881  0.71871595    -0.32900
H1629       H  0.09526083  0.43028684  0.69498492     0.28500
H1630       H  0.17737506  0.35163380  0.80946451     0.28500
H1631       H  0.15533949  0.34140072  0.72285243     0.19100
H1632       H  0.08688494  0.41099113  0.78168158     0.19100
C1633       C  0.11935097  0.46525886  0.62667884    -0.06800
C1634       C  0.14822529  0.47979668  0.62616906    -0.17900
C1635       C  0.15118407  0.51171455  0.62417786     0.10400
C1636       C  0.12451820  0.53049126  0.62281627    -0.06700
C1637       C  0.09559642  0.51602251  0.62397011    -0.17900
C1638       C  0.09265290  0.48403274  0.62623236     0.10500
S1639       S  0.18994366  0.52633847  0.62345972    -0.32900
S1640       S  0.05401158  0.46928411  0.62869219    -0.32900
H1641       H  0.05965986  0.45303923  0.65605166     0.28500
H1642       H  0.18626928  0.53991775  0.59430122     0.28500
H1643       H  0.16907406  0.46617657  0.62685151     0.19100
H1644       H  0.07480825  0.52974215  0.62345700     0.19100
C1645       C  0.12810304  0.37945946  0.21990901    -0.06800
C1646       C  0.10916708  0.40040447  0.23559933    -0.17900
C1647       C  0.10780193  0.40099743  0.26774986     0.10400
C1648       C  0.12584170  0.38011423  0.28494936    -0.06700
C1649       C  0.14551094  0.35982785  0.26928798    -0.17900
C1650       C  0.14677517  0.35917289  0.23711502     0.10500
S1651       S  0.08312985  0.42953475  0.28510555    -0.32900
S1652       S  0.17342348  0.33265800  0.21957144    -0.32900
H1653       H  0.18257925  0.35283304  0.19597162     0.28500
H1654       H  0.10133474  0.43466163  0.31119289     0.28500
H1655       H  0.09509405  0.41640127  0.22268356     0.19100
H1656       H  0.16004744  0.34428020  0.28218888     0.19100
C1657       C  0.12477105  0.47079214  0.37468365    -0.06800
C1658       C  0.10365961  0.48741260  0.39262275    -0.17900
C1659       C  0.10337407  0.51960228  0.39252633     0.10400
C1660       C  0.12397709  0.53582610  0.37324930    -0.06700
C1661       C  0.14516471  0.51922607  0.35542376    -0.17900
C1662       C  0.14563195  0.48704666  0.35566534     0.10500
S1663       S  0.07749960  0.53850307  0.41890225    -0.32900
S1664       S  0.17257683  0.46843199  0.33013255    -0.32900
H1665       H  0.15352653  0.44353652  0.32257062     0.28500
H1666       H  0.09833123  0.56185005  0.42706208     0.28500
H1667       H  0.08787930  0.47522526  0.40760609     0.19100
H1668       H  0.16098272  0.53143017  0.34049599     0.19100
C1669       C  0.12071188  0.37773241  0.47001723    -0.06800
C1670       C  0.09895967  0.35876695  0.48455939    -0.17900
C1671       C  0.09835840  0.35550498  0.51659799     0.10400
C1672       C  0.11951791  0.37212087  0.53480447    -0.06700
C1673       C  0.14120514  0.39111813  0.52023195    -0.17900
C1674       C  0.14173576  0.39445903  0.48824023     0.10500
S1675       S  0.07130311  0.32844913  0.53258743    -0.32900
S1676       S  0.16855569  0.42180762  0.47231943    -0.32900
H1677       H  0.14856547  0.43245739  0.44922852     0.28500
H1678       H  0.09139939  0.31768250  0.55548898     0.28500
H1679       H  0.08299642  0.34552234  0.47079516     0.19100
H1680       H  0.15719574  0.40437211  0.53395572     0.19100
C1681       C  0.78401654  0.87111093  0.37703080    -0.06800
C1682       C  0.76842347  0.84989605  0.35843372    -0.17900
C1683       C  0.73629122  0.84955012  0.35682610     0.10400
C1684       C  0.71905652  0.87084773  0.37440211    -0.06700
C1685       C  0.73470309  0.89207696  0.39301186    -0.17900
C1686       C  0.76685928  0.89254289  0.39445354     0.10500
S1687       S  0.71899339  0.82210744  0.33103012    -0.32900
S1688       S  0.78437240  0.92168547  0.41817666    -0.32900
H1689       H  0.80984775  0.92685615  0.39900717     0.28500
H1690       H  0.69561620  0.84186351  0.32069070     0.28500
H1691       H  0.78144963  0.83356547  0.34479139     0.19100
H1692       H  0.72174566  0.90851197  0.40658454     0.19100
C1693       C  0.87950865  0.77962412  0.37452915    -0.06800
C1694       C  0.85936659  0.76365830  0.35508240    -0.17900
C1695       C  0.85878255  0.73149433  0.35446264     0.10400
C1696       C  0.87852311  0.71461398  0.37400472    -0.06700
C1697       C  0.89905887  0.73058869  0.39305745    -0.17900
C1698       C  0.89986480  0.76276703  0.39344912     0.10500
S1699       S  0.83335026  0.71343355  0.32724213    -0.32900
S1700       S  0.92820346  0.78085671  0.41762735    -0.32900
H1701       H  0.93509588  0.80441692  0.39657774     0.28500
H1702       H  0.85427480  0.69011157  0.31924711     0.28500
H1703       H  0.84390381  0.77636360  0.34022750     0.19100
H1704       H  0.91466340  0.71791728  0.40776387     0.19100
C1705       C  0.86809280  0.21451857  0.37721077    -0.06800
C1706       C  0.89006792  0.22942085  0.39542255    -0.17900
C1707       C  0.89288451  0.26151469  0.39536855     0.10400
C1708       C  0.87268611  0.27926325  0.37713720    -0.06700
C1709       C  0.85011172  0.26435287  0.35952475    -0.17900
C1710       C  0.84775217  0.23217450  0.35916530     0.10500
S1711       S  0.92141214  0.27940073  0.41971542    -0.32900
S1712       S  0.81793503  0.21396484  0.33674611    -0.32900
H1713       H  0.80453951  0.24107358  0.32527529     0.28500
H1714       H  0.93441484  0.25217894  0.43138297     0.28500
H1715       H  0.90535464  0.21573824  0.40951627     0.19100
H1716       H  0.83449826  0.27802390  0.34575472     0.19100
C1717       C  0.71259578  0.12121869  0.37515849    -0.06800
C1718       C  0.72791675  0.09761274  0.39111300    -0.17900
C1719       C  0.76012881  0.09624546  0.39202628     0.10400
C1720       C  0.77754077  0.11922847  0.37709159    -0.06700
C1721       C  0.76236011  0.14261537  0.36106988    -0.17900
C1722       C  0.73031724  0.14374352  0.35972722     0.10500
S1723       S  0.77759077  0.06408391  0.41152157    -0.32900
S1724       S  0.71363786  0.17312013  0.33596019    -0.32900
H1725       H  0.69458222  0.15180357  0.32090843     0.28500
H1726       H  0.80296617  0.06152064  0.39158872     0.28500
H1727       H  0.71473271  0.07999710  0.40282882     0.19100
H1728       H  0.77563129  0.15998835  0.34911973     0.19100
C1729       C  0.87381780  0.02965327  0.37617451    -0.06800
C1730       C  0.85615928  0.01384319  0.35430394    -0.17900
C1731       C  0.85511472  0.98168942  0.35372509     0.10400
C1732       C  0.87283341  0.96462126  0.37498965    -0.06700
C1733       C  0.89038653  0.98045585  0.39695924    -0.17900
C1734       C  0.89137262  0.01260851  0.39756608     0.10500
S1735       S  0.82944963  0.96413430  0.32633028    -0.32900
S1736       S  0.91679295  0.03031403  0.42508437    -0.32900
H1737       H  0.92685280  0.05369796  0.40508247     0.28500
H1738       H  0.81980764  0.94028016  0.34590082     0.28500
H1739       H  0.84221768  0.02666234  0.33813186     0.19100
H1740       H  0.90428764  0.96767501  0.41319487     0.19100
C1741       C  0.12568927  0.72071688  0.36827163    -0.06800
C1742       C  0.14150407  0.73608174  0.39173352    -0.17900
C1743       C  0.14361863  0.76819885  0.39216453     0.10400
C1744       C  0.12950948  0.78565967  0.36855732    -0.06700
C1745       C  0.11446742  0.77007587  0.34458766    -0.17900
C1746       C  0.11214303  0.73797428  0.34439167     0.10500
S1747       S  0.16578509  0.78517997  0.42274088    -0.32900
S1748       S  0.09307257  0.72016161  0.31230241    -0.32900
H1749       H  0.07093806  0.70549133  0.33076163     0.28500
H1750       H  0.17965646  0.80739438  0.40376325     0.28500
H1751       H  0.15243454  0.72290300  0.40984025     0.19100
H1752       H  0.10373852  0.78300785  0.32619903     0.19100
C1753       C  0.21845815  0.88206844  0.37013255    -0.06800
C1754       C  0.23368668  0.86179790  0.39004213    -0.17900
C1755       C  0.26573673  0.86119992  0.39185041     0.10400
C1756       C  0.28325278  0.88107495  0.37302782    -0.06700
C1757       C  0.26801261  0.90193780  0.35366336    -0.17900
C1758       C  0.23587140  0.90274394  0.35209974     0.10500
S1759       S  0.28272695  0.83554779  0.41963355    -0.32900
S1760       S  0.21854653  0.93142709  0.32768887    -0.32900
H1761       H  0.19358966  0.93756545  0.34738581     0.28500
H1762       H  0.30593722  0.85614009  0.42871957     0.28500
H1763       H  0.22048718  0.84632471  0.40445411     0.19100
H1764       H  0.28120038  0.91778526  0.33967254     0.19100
C1765       C  0.03386371  0.87347769  0.36869997    -0.06800
C1766       C  0.01722549  0.89073328  0.34712400    -0.17900
C1767       C  0.98507115  0.89217040  0.34820865     0.10400
C1768       C  0.96889019  0.87532376  0.37091581    -0.06700
C1769       C  0.98557814  0.85794429  0.39234798    -0.17900
C1770       C  0.01766762  0.85637402  0.39115972     0.10500
S1771       S  0.96633432  0.91749643  0.32127096    -0.32900
S1772       S  0.03637051  0.83077763  0.41789281    -0.32900
H1773       H  0.05894665  0.82073953  0.39693867     0.28500
H1774       H  0.94419285  0.92820116  0.34235483     0.28500
H1775       H  0.02940284  0.90422522  0.33004217     0.19100
H1776       H  0.97348918  0.84464553  0.40962827     0.19100
C1777       C  0.21250483  0.13025047  0.37395100    -0.06800
C1778       C  0.22801470  0.15252002  0.39135245    -0.17900
C1779       C  0.26021315  0.15350284  0.39222711     0.10400
C1780       C  0.27745655  0.13161489  0.37537616    -0.06700
C1781       C  0.26179034  0.10943501  0.35795207    -0.17900
C1782       C  0.22969702  0.10855212  0.35693930     0.10500
S1783       S  0.27768403  0.18243550  0.41616867    -0.32900
S1784       S  0.21234561  0.07871733  0.33394278    -0.32900
H1785       H  0.18669315  0.07411320  0.35296291     0.28500
H1786       H  0.30063375  0.16287191  0.42786305     0.28500
H1787       H  0.21492226  0.16925186  0.40441476     0.19100
H1788       H  0.27467077  0.09251198  0.34495783     0.19100
C1789       C  0.12125365  0.28586370  0.37708031    -0.06800
C1790       C  0.10205096  0.27038403  0.39793512    -0.17900
C1791       C  0.10035780  0.23820114  0.39827355     0.10400
C1792       C  0.11834573  0.22096170  0.37729276    -0.06700
C1793       C  0.13752562  0.23654414  0.35651716    -0.17900
C1794       C  0.13910832  0.26861845  0.35612725     0.10500
S1795       S  0.07408137  0.22074119  0.42523488    -0.32900
S1796       S  0.16335833  0.28618220  0.32747375    -0.32900
H1797       H  0.14242721  0.30987904  0.32086607     0.28500
H1798       H  0.06417071  0.19753073  0.40502811     0.28500
H1799       H  0.08821447  0.28347924  0.41404092     0.19100
H1800       H  0.15145246  0.22359895  0.34036784     0.19100
C1801       C  0.96241402  0.12656126  0.37592581    -0.06800
C1802       C  0.97813212  0.11332815  0.35097025    -0.17900
C1803       C  0.01028083  0.11218676  0.35002457     0.10400
C1804       C  0.02757190  0.12517549  0.37432549    -0.06700
C1805       C  0.01187396  0.13859375  0.39916610    -0.17900
C1806       C  0.97974566  0.13988346  0.40002878     0.10500
S1807       S  0.02752030  0.09229404  0.31796126    -0.32900
S1808       S  0.96263130  0.16059643  0.43159741    -0.32900
H1809       H  0.94049095  0.17508495  0.41311481     0.28500
H1810       H  0.04970743  0.07706320  0.33591042     0.28500
H1811       H  0.96527491  0.10279580  0.33243852     0.19100
H1812       H  0.02475722  0.14917368  0.41765753     0.19100
C1813       C  0.12431858  0.03602142  0.37107311    -0.06800
C1814       C  0.10829474  0.02061506  0.34766176    -0.17900
C1815       C  0.10698732  0.98845719  0.34661766     0.10400
C1816       C  0.12278705  0.97093897  0.36900600    -0.06700
C1817       C  0.13913952  0.98634895  0.39214300    -0.17900
C1818       C  0.14041140  0.01846484  0.39324905     0.10500
S1819       S  0.08315894  0.97141343  0.31733503    -0.32900
S1820       S  0.16408648  0.03526725  0.42283848    -0.32900
H1821       H  0.17539543  0.05937086  0.40452461     0.28500
H1822       H  0.07100700  0.94849264  0.33669609     0.28500
H1823       H  0.09563069  0.03372714  0.33068876     0.19100
H1824       H  0.15179996  0.97322919  0.40911892     0.19100
loop_ 
_geom_bond_atom_site_label_1 
_geom_bond_atom_site_label_2 
_geom_bond_distance 
_geom_bond_site_symmetry_2 
_ccdc_geom_bond_type 
O1           Ni9   1.918       .  S
O1           C11   1.282       .  A
O2           Ni9   1.919       .  S
O2           C12   1.281       .  A
O3           Ni9   1.916       .  S
O3           C13   1.280       .  A
O4           Ni9   1.917       .  S
O4           C14   1.281       .  A
O5          Ni10   1.918       .  S
O5           C14   1.282       .  A
O6          Ni10   1.917       .  S
O6           C13   1.282       .  A
O7          Ni10   1.914       .  S
O7           C12   1.280       .  A
O8          Ni10   1.915       .  S
O8           C11   1.280       .  A
Ni9         Ni10   2.388       .  S
C11        C1804   1.482       .  S
C12        C1777   1.472       .  S
C13        C1792   1.478       .  S
C14        C1813   1.482       .  S
O15         Ni23   1.921       .  S
O15          C25   1.282       .  A
O16         Ni23   1.921       .  S
O16          C26   1.282       .  A
O17         Ni23   1.921       .  S
O17          C27   1.283       .  A
O18         Ni23   1.917       .  S
O18          C28   1.281       .  A
O19         Ni24   1.918       .  S
O19          C28   1.282       .  A
O20         Ni24   1.916       .  S
O20          C27   1.281       .  A
O21         Ni24   1.909       .  S
O21          C26   1.279       .  A
O22         Ni24   1.910       .  S
O22          C25   1.280       .  A
Ni23        Ni24   2.388       .  S
C25        C1765   1.478       .  S
C26        C1753   1.473       .  S
C27        C1744   1.484       .  S
C28        C1816   1.482       .  S
O29         Ni37   1.916       .  S
O29          C39   1.280       .  A
O30         Ni37   1.918       .  S
O30          C40   1.282       .  A
O31         Ni37   1.913       .  S
O31          C41   1.280       .  A
O32         Ni37   1.918       .  S
O32          C42   1.282       .  A
O33         Ni38   1.916       .  S
O33          C42   1.281       .  A
O34         Ni38   1.920       .  S
O34          C41   1.281       .  A
O35         Ni38   1.915       .  S
O35          C40   1.281       .  A
O36         Ni38   1.920       .  S
O36          C39   1.282       .  A
Ni37        Ni38   2.389       .  S
C39        C1705   1.476       .  S
C40        C1729   1.479       .  S
C41        C1720   1.471       .  S
C42        C1801   1.484       .  S
O43         Ni51   1.914       .  S
O43          C53   1.280       .  A
O44         Ni51   1.911       .  S
O44          C54   1.280       .  A
O45         Ni51   1.919       .  S
O45          C55   1.282       .  A
O46         Ni51   1.919       .  S
O46          C56   1.282       .  A
O47         Ni52   1.918       .  S
O47          C56   1.281       .  A
O48         Ni52   1.915       .  S
O48          C55   1.281       .  A
O49         Ni52   1.923       .  S
O49          C54   1.282       .  A
O50         Ni52   1.920       .  S
O50          C53   1.282       .  A
Ni51        Ni52   2.389       .  S
C53        C1768   1.479       .  S
C54        C1681   1.475       .  S
C55        C1732   1.480       .  S
C56        C1693   1.478       .  S
O57         Ni65   1.917       .  S
O57          C67   1.281       .  A
O58         Ni65   1.918       .  S
O58          C68   1.281       .  A
O59         Ni65   1.916       .  S
O59          C69   1.281       .  A
O60         Ni65   1.921       .  S
O60          C70   1.282       .  A
O61         Ni66   1.917       .  S
O61          C70   1.281       .  A
O62         Ni66   1.919       .  S
O62          C69   1.282       .  A
O63         Ni66   1.918       .  S
O63          C68   1.281       .  A
O64         Ni66   1.919       .  S
O64          C67   1.281       .  A
Ni65        Ni66   2.389       .  S
C67        C1657   1.479       .  S
C68        C1789   1.476       .  S
C69        C1669   1.478       .  S
C70        C1648   1.478       .  S
O71         Ni79   1.911       .  S
O71          C81   1.280       .  A
O72         Ni79   1.915       .  S
O72          C82   1.281       .  A
O73         Ni79   1.914       .  S
O73          C83   1.283       .  A
O74         Ni79   1.914       .  S
O74          C84   1.281       .  A
O75         Ni80   1.919       .  S
O75          C84   1.281       .  A
O76         Ni80   1.917       .  S
O76          C83   1.280       .  A
O77         Ni80   1.919       .  S
O77          C82   1.282       .  A
O78         Ni80   1.923       .  S
O78          C81   1.282       .  A
Ni79        Ni80   2.387       .  S
C81        C1621   1.477       .  S
C82        C1672   1.479       .  S
C83        C1633   1.493       .  S
C84        C1609   1.474       .  S
O85         Ni93   1.920       .  S
O85          C95   1.281       .  A
O86         Ni93   1.918       .  S
O86          C96   1.281       .  A
O87         Ni93   1.916       .  S
O87          C97   1.281       .  A
O88         Ni93   1.916       .  S
O88          C98   1.281       .  A
O89         Ni94   1.917       .  S
O89          C98   1.281       .  A
O90         Ni94   1.915       .  S
O90          C97   1.282       .  A
O91         Ni94   1.917       .  S
O91          C96   1.281       .  A
O92         Ni94   1.916       .  S
O92          C95   1.280       .  A
Ni93        Ni94   2.388       .  S
C95        C1741   1.475       .  S
C96        C1660   1.479       .  S
C97        C1597   1.482       .  S
C98        C1585   1.477       .  S
O99        Ni107   1.920       .  S
O99         C109   1.282       .  A
O100       Ni107   1.922       .  S
O100        C110   1.283       .  A
O101       Ni107   1.913       .  S
O101        C111   1.280       .  A
O102       Ni107   1.912       .  S
O102        C112   1.281       .  A
O103       Ni108   1.919       .  S
O103        C112   1.282       .  A
O104       Ni108   1.915       .  S
O104        C111   1.280       .  A
O105       Ni108   1.910       .  S
O105        C110   1.278       .  A
O106       Ni108   1.917       .  S
O106        C109   1.281       .  A
Ni107      Ni108   2.386       .  S
C109       C1573   1.477       .  S
C110       C1636   1.494       .  S
C111       C1561   1.469       .  S
C112       C1600   1.483       .  S
O113       Ni121   1.920       .  S
O113        C123   1.282       .  A
O114       Ni121   1.920       .  S
O114        C124   1.284       .  A
O115       Ni121   1.919       .  S
O115        C125   1.281       .  A
O116       Ni121   1.920       .  S
O116        C126   1.281       .  A
O117       Ni122   1.915       .  S
O117        C126   1.281       .  A
O118       Ni122   1.919       .  S
O118        C125   1.282       .  A
O119       Ni122   1.913       .  S
O119        C124   1.279       .  A
O120       Ni122   1.909       .  S
O120        C123   1.280       .  A
Ni121      Ni122   2.385       .  S
C123       C1549   1.479       .  S
C124       C1528   1.492       .  S
C125       C1717   1.484       .  S
C126       C1537   1.478       .  S
O127       Ni135   1.915       .  S
O127        C137   1.281       .  A
O128       Ni135   1.916       .  S
O128        C138   1.281       .  A
O129       Ni135   1.919       .  S
O129        C139   1.282       .  A
O130       Ni135   1.919       .  S
O130        C140   1.282       .  A
O131       Ni136   1.913       .  S
O131        C140   1.280       .  A
O132       Ni136   1.916       .  S
O132        C139   1.280       .  A
O133       Ni136   1.915       .  S
O133        C138   1.281       .  A
O134       Ni136   1.919       .  S
O134        C137   1.281       .  A
Ni135      Ni136   2.388       .  S
C137       C1501   1.481       .  S
C138       C1552   1.480       .  S
C139       C1492   1.474       .  S
C140       C1513   1.480       .  S
O141       Ni149   1.920       .  S
O141        C151   1.281       .  A
O142       Ni149   1.917       .  S
O142        C152   1.282       .  A
O143       Ni149   1.919       .  S
O143        C153   1.282       .  A
O144       Ni149   1.918       .  S
O144        C154   1.282       .  A
O145       Ni150   1.919       .  S
O145        C154   1.282       .  A
O146       Ni150   1.915       .  S
O146        C153   1.281       .  A
O147       Ni150   1.916       .  S
O147        C152   1.281       .  A
O148       Ni150   1.914       .  S
O148        C151   1.281       .  A
Ni149      Ni150   2.388       .  S
C151       C1780   1.480       .  S
C152       C1540   1.477       .  S
C153       C1465   1.478       .  S
C154       C1477   1.484       .  S
O155       Ni163   1.915       .  S
O155        C165   1.280       .  A
O156       Ni163   1.917       .  S
O156        C166   1.282       .  A
O157       Ni163   1.922       .  S
O157        C167   1.282       .  A
O158       Ni163   1.920       .  S
O158        C168   1.283       .  A
O159       Ni164   1.917       .  S
O159        C168   1.281       .  A
O160       Ni164   1.911       .  S
O160        C167   1.280       .  A
O161       Ni164   1.918       .  S
O161        C166   1.281       .  A
O162       Ni164   1.919       .  S
O162        C165   1.281       .  A
Ni163      Ni164   2.388       .  S
C165       C1453   1.473       .  S
C166       C1516   1.482       .  S
C167       C1441   1.476       .  S
C168       C1480   1.486       .  S
O169       Ni177   1.918       .  S
O169        C179   1.281       .  A
O170       Ni177   1.918       .  S
O170        C180   1.281       .  A
O171       Ni177   1.917       .  S
O171        C181   1.281       .  A
O172       Ni177   1.914       .  S
O172        C182   1.281       .  A
O173       Ni178   1.919       .  S
O173        C182   1.281       .  A
O174       Ni178   1.916       .  S
O174        C181   1.281       .  A
O175       Ni178   1.918       .  S
O175        C180   1.281       .  A
O176       Ni178   1.919       .  S
O176        C179   1.282       .  A
Ni177      Ni178   2.388       .  S
C179       C1696   1.479       .  S
C180       C1417   1.482       .  S
C181       C1429   1.481       .  S
C182       C1405   1.477       .  S
O183       Ni191   1.924       .  S
O183        C193   1.283       .  A
O184       Ni191   1.918       .  S
O184        C194   1.282       .  A
O185       Ni191   1.910       .  S
O185        C195   1.279       .  A
O186       Ni191   1.915       .  S
O186        C196   1.281       .  A
O187       Ni192   1.918       .  S
O187        C196   1.282       .  A
O188       Ni192   1.916       .  S
O188        C195   1.281       .  A
O189       Ni192   1.915       .  S
O189        C194   1.280       .  A
O190       Ni192   1.914       .  S
O190        C193   1.281       .  A
Ni191      Ni192   2.389       .  S
C193       C1369   1.480       .  S
C194       C1393   1.481       .  S
C195       C1384   1.470       .  S
C196       C1432   1.480       .  S
O197       Ni205   1.916       .  S
O197        C207   1.281       .  A
O198       Ni205   1.914       .  S
O198        C208   1.281       .  A
O199       Ni205   1.915       .  S
O199        C209   1.280       .  A
O200       Ni205   1.915       .  S
O200        C210   1.281       .  A
O201       Ni206   1.915       .  S
O201        C210   1.281       .  A
O202       Ni206   1.917       .  S
O202        C209   1.281       .  A
O203       Ni206   1.919       .  S
O203        C208   1.282       .  A
O204       Ni206   1.917       .  S
O204        C207   1.281       .  A
Ni205      Ni206   2.388       .  S
C207       C1708   1.479       .  S
C208       C1420   1.481       .  S
C209       C1345   1.474       .  S
C210       C1357   1.478       .  S
O211       Ni219   1.915       .  S
O211        C221   1.281       .  A
O212       Ni219   1.916       .  S
O212        C222   1.281       .  A
O213       Ni219   1.918       .  S
O213        C223   1.282       .  A
O214       Ni219   1.919       .  S
O214        C224   1.282       .  A
O215       Ni220   1.914       .  S
O215        C224   1.280       .  A
O216       Ni220   1.916       .  S
O216        C223   1.281       .  A
O217       Ni220   1.915       .  S
O217        C222   1.281       .  A
O218       Ni220   1.917       .  S
O218        C221   1.281       .  A
Ni219      Ni220   2.389       .  S
C221       C1321   1.474       .  S
C222       C1360   1.479       .  S
C223       C1396   1.481       .  S
C224       C1333   1.478       .  S
O225       Ni233   1.915       .  S
O225        C235   1.280       .  A
O226       Ni233   1.917       .  S
O226        C236   1.281       .  A
O227       Ni233   1.920       .  S
O227        C237   1.282       .  A
O228       Ni233   1.921       .  S
O228        C238   1.282       .  A
O229       Ni234   1.912       .  S
O229        C238   1.280       .  A
O230       Ni234   1.916       .  S
O230        C237   1.281       .  A
O231       Ni234   1.918       .  S
O231        C236   1.283       .  A
O232       Ni234   1.915       .  S
O232        C235   1.281       .  A
Ni233      Ni234   2.387       .  S
C235       C1756   1.474       .  S
C236       C1297   1.487       .  S
C237       C1288   1.483       .  S
C238       C1312   1.482       .  S
O239       Ni247   1.912       .  S
O239        C249   1.280       .  A
O240       Ni247   1.913       .  S
O240        C250   1.280       .  A
O241       Ni247   1.916       .  S
O241        C251   1.282       .  A
O242       Ni247   1.918       .  S
O242        C252   1.282       .  A
O243       Ni248   1.913       .  S
O243        C252   1.281       .  A
O244       Ni248   1.916       .  S
O244        C251   1.281       .  A
O245       Ni248   1.922       .  S
O245        C250   1.282       .  A
O246       Ni248   1.920       .  S
O246        C249   1.282       .  A
Ni247      Ni248   2.388       .  S
C249       C1249   1.475       .  S
C250       C1273   1.480       .  S
C251       C1261   1.478       .  S
C252       C1309   1.482       .  S
O253       Ni261   1.915       .  S
O253        C263   1.281       .  A
O254       Ni261   1.919       .  S
O254        C264   1.282       .  A
O255       Ni261   1.918       .  S
O255        C265   1.281       .  A
O256       Ni261   1.917       .  S
O256        C266   1.281       .  A
O257       Ni262   1.918       .  S
O257        C266   1.282       .  A
O258       Ni262   1.918       .  S
O258        C265   1.281       .  A
O259       Ni262   1.914       .  S
O259        C264   1.281       .  A
O260       Ni262   1.918       .  S
O260        C263   1.281       .  A
Ni261      Ni262   2.389       .  S
C263       C1213   1.476       .  S
C264       C1237   1.479       .  S
C265       C1225   1.477       .  S
C266       C1276   1.481       .  S
O267       Ni275   1.915       .  S
O267        C277   1.280       .  A
O268       Ni275   1.917       .  S
O268        C278   1.281       .  A
O269       Ni275   1.916       .  S
O269        C279   1.281       .  A
O270       Ni275   1.916       .  S
O270        C280   1.281       .  A
O271       Ni276   1.921       .  S
O271        C280   1.282       .  A
O272       Ni276   1.918       .  S
O272        C279   1.282       .  A
O273       Ni276   1.920       .  S
O273        C278   1.281       .  A
O274       Ni276   1.918       .  S
O274        C277   1.282       .  A
Ni275      Ni276   2.387       .  S
C277       C1240   1.478       .  S
C278       C1204   1.477       .  S
C279       C1684   1.479       .  S
C280       C1300   1.487       .  S
O281       Ni289   1.924       .  S
O281        C291   1.283       .  A
O282       Ni289   1.922       .  S
O282        C292   1.282       .  A
O283       Ni289   1.921       .  S
O283        C293   1.282       .  A
O284       Ni289   1.917       .  S
O284        C294   1.282       .  A
O285       Ni290   1.916       .  S
O285        C294   1.280       .  A
O286       Ni290   1.913       .  S
O286        C293   1.281       .  A
O287       Ni290   1.911       .  S
O287        C292   1.280       .  A
O288       Ni290   1.915       .  S
O288        C291   1.280       .  A
Ni289      Ni290   2.388       .  S
C291       C1576   1.481       .  S
C292       C1189   1.479       .  S
C293       C1177   1.479       .  S
C294       C1252   1.480       .  S
O295       Ni303   1.923       .  S
O295        C305   1.283       .  A
O296       Ni303   1.923       .  S
O296        C306   1.283       .  A
O297       Ni303   1.909       .  S
O297        C307   1.279       .  A
O298       Ni303   1.912       .  S
O298        C308   1.279       .  A
O299       Ni304   1.921       .  S
O299        C308   1.283       .  A
O300       Ni304   1.921       .  S
O300        C307   1.282       .  A
O301       Ni304   1.912       .  S
O301        C306   1.280       .  A
O302       Ni304   1.906       .  S
O302        C305   1.279       .  A
Ni303      Ni304   2.388       .  S
C305       C1168   1.479       .  S
C306       C1456   1.482       .  S
C307       C1612   1.474       .  S
C308       C1192   1.478       .  S
O309       Ni317   1.914       .  S
O309        C319   1.281       .  A
O310       Ni317   1.911       .  S
O310        C320   1.280       .  A
O311       Ni317   1.915       .  S
O311        C321   1.280       .  A
O312       Ni317   1.913       .  S
O312        C322   1.280       .  A
O313       Ni318   1.921       .  S
O313        C322   1.282       .  A
O314       Ni318   1.920       .  S
O314        C321   1.282       .  A
O315       Ni318   1.919       .  S
O315        C320   1.282       .  A
O316       Ni318   1.919       .  S
O316        C319   1.281       .  A
Ni317      Ni318   2.388       .  S
C319       C1489   1.478       .  S
C320       C1165   1.480       .  S
C321       C1336   1.475       .  S
C322       C1153   1.480       .  S
O323       Ni331   1.919       .  S
O323        C333   1.283       .  A
O324       Ni331   1.922       .  S
O324        C334   1.282       .  A
O325       Ni331   1.912       .  S
O325        C335   1.280       .  A
O326       Ni331   1.914       .  S
O326        C336   1.280       .  A
O327       Ni332   1.924       .  S
O327        C336   1.282       .  A
O328       Ni332   1.923       .  S
O328        C335   1.283       .  A
O329       Ni332   1.912       .  S
O329        C334   1.280       .  A
O330       Ni332   1.916       .  S
O330        C333   1.280       .  A
Ni331      Ni332   2.388       .  S
C333       C1180   1.483       .  S
C334       C1228   1.477       .  S
C335       C1156   1.481       .  S
C336       C1372   1.479       .  S
O337       Ni345   1.915       .  S
O337        C347   1.281       .  A
O338       Ni345   1.920       .  S
O338        C348   1.282       .  A
O339       Ni345   1.917       .  S
O339        C349   1.281       .  A
O340       Ni345   1.918       .  S
O340        C350   1.281       .  A
O341       Ni346   1.915       .  S
O341        C350   1.280       .  A
O342       Ni346   1.915       .  S
O342        C349   1.281       .  A
O343       Ni346   1.917       .  S
O343        C348   1.281       .  A
O344       Ni346   1.917       .  S
O344        C347   1.281       .  A
Ni345      Ni346   2.388       .  S
C347       C1120   1.477       .  S
C348       C1129   1.483       .  S
C349       C1141   1.480       .  S
C350       C1468   1.474       .  S
O351       Ni359   1.916       .  S
O351        C361   1.281       .  A
O352       Ni359   1.915       .  S
O352        C362   1.281       .  A
O353       Ni359   1.920       .  S
O353        C363   1.282       .  A
O354       Ni359   1.922       .  S
O354        C364   1.282       .  A
O355       Ni360   1.915       .  S
O355        C364   1.281       .  A
O356       Ni360   1.915       .  S
O356        C363   1.280       .  A
O357       Ni360   1.916       .  S
O357        C362   1.281       .  A
O358       Ni360   1.916       .  S
O358        C361   1.281       .  A
Ni359      Ni360   2.389       .  S
C361       C1144   1.479       .  S
C362       C1444   1.475       .  S
C363       C1105   1.481       .  S
C364       C1093   1.478       .  S
O365       Ni373   1.921       .  S
O365        C375   1.282       .  A
O366       Ni373   1.923       .  S
O366        C376   1.283       .  A
O367       Ni373   1.915       .  S
O367        C377   1.280       .  A
O368       Ni373   1.917       .  S
O368        C378   1.281       .  A
O369       Ni374   1.917       .  S
O369        C378   1.281       .  A
O370       Ni374   1.919       .  S
O370        C377   1.282       .  A
O371       Ni374   1.913       .  S
O371        C376   1.280       .  A
O372       Ni374   1.914       .  S
O372        C375   1.279       .  A
Ni373      Ni374   2.389       .  S
C375       C1069   1.470       .  S
C376       C1108   1.481       .  S
C377       C1081   1.478       .  S
C378       C1264   1.475       .  S
O379       Ni387   1.918       .  S
O379        C389   1.282       .  A
O380       Ni387   1.920       .  S
O380        C390   1.281       .  A
O381       Ni387   1.916       .  S
O381        C391   1.281       .  A
O382       Ni387   1.916       .  S
O382        C392   1.281       .  A
O383       Ni388   1.917       .  S
O383        C392   1.281       .  A
O384       Ni388   1.920       .  S
O384        C391   1.282       .  A
O385       Ni388   1.917       .  S
O385        C390   1.281       .  A
O386       Ni388   1.915       .  S
O386        C389   1.281       .  A
Ni387      Ni388   2.388       .  S
C389       C1084   1.478       .  S
C390       C1285   1.473       .  S
C391       C1132   1.483       .  S
C392       C1057   1.479       .  S
O393       Ni401   1.913       .  S
O393        C403   1.281       .  A
O394       Ni401   1.914       .  S
O394        C404   1.280       .  A
O395       Ni401   1.919       .  S
O395        C405   1.282       .  A
O396       Ni401   1.918       .  S
O396        C406   1.281       .  A
O397       Ni402   1.915       .  S
O397        C406   1.280       .  A
O398       Ni402   1.916       .  S
O398        C405   1.281       .  A
O399       Ni402   1.916       .  S
O399        C404   1.282       .  A
O400       Ni402   1.918       .  S
O400        C403   1.282       .  A
Ni401      Ni402   2.387       .  S
C403       C1348   1.478       .  S
C404       C1048   1.488       .  S
C405       C1033   1.479       .  S
C406       C1021   1.470       .  S
O407       Ni415   1.920       .  S
O407        C417   1.282       .  A
O408       Ni415   1.918       .  S
O408        C418   1.281       .  A
O409       Ni415   1.915       .  S
O409        C419   1.280       .  A
O410       Ni415   1.912       .  S
O410        C420   1.282       .  A
O411       Ni416   1.916       .  S
O411        C420   1.280       .  A
O412       Ni416   1.916       .  S
O412        C419   1.281       .  A
O413       Ni416   1.918       .  S
O413        C418   1.281       .  A
O414       Ni416   1.916       .  S
O414        C417   1.281       .  A
Ni415      Ni416   2.387       .  S
C417       C1009   1.479       .  S
C418        C997   1.479       .  S
C419       C1324   1.476       .  S
C420       C1045   1.487       .  S
O421       Ni429   1.916       .  S
O421        C431   1.282       .  A
O422       Ni429   1.921       .  S
O422        C432   1.282       .  A
O423       Ni429   1.914       .  S
O423        C433   1.281       .  A
O424       Ni429   1.913       .  S
O424        C434   1.280       .  A
O425       Ni430   1.920       .  S
O425        C434   1.282       .  A
O426       Ni430   1.919       .  S
O426        C433   1.282       .  A
O427       Ni430   1.915       .  S
O427        C432   1.281       .  A
O428       Ni430   1.916       .  S
O428        C431   1.281       .  A
Ni429      Ni430   2.388       .  S
C431        C985   1.482       .  S
C432       C1645   1.480       .  S
C433       C1036   1.478       .  S
C434        C973   1.476       .  S
O435       Ni443   1.920       .  S
O435        C445   1.282       .  A
O436       Ni443   1.919       .  S
O436        C446   1.282       .  A
O437       Ni443   1.918       .  S
O437        C447   1.282       .  A
O438       Ni443   1.918       .  S
O438        C448   1.282       .  A
O439       Ni444   1.913       .  S
O439        C448   1.280       .  A
O440       Ni444   1.913       .  S
O440        C447   1.280       .  A
O441       Ni444   1.915       .  S
O441        C446   1.281       .  A
O442       Ni444   1.914       .  S
O442        C445   1.281       .  A
Ni443      Ni444   2.388       .  S
C445        C961   1.477       .  S
C446       C1012   1.478       .  S
C447        C988   1.481       .  S
C448       C1624   1.475       .  S
O449       Ni457   1.914       .  S
O449        C459   1.280       .  A
O450       Ni457   1.912       .  S
O450        C460   1.278       .  A
O451       Ni457   1.919       .  S
O451        C461   1.282       .  A
O452       Ni457   1.920       .  S
O452        C462   1.282       .  A
O453       Ni458   1.912       .  S
O453        C462   1.280       .  A
O454       Ni458   1.916       .  S
O454        C461   1.281       .  A
O455       Ni458   1.919       .  S
O455        C460   1.283       .  A
O456       Ni458   1.920       .  S
O456        C459   1.282       .  A
Ni457      Ni458   2.385       .  S
C459        C925   1.476       .  S
C460        C937   1.493       .  S
C461       C1201   1.479       .  S
C462        C952   1.483       .  S
O463       Ni471   1.921       .  S
O463        C473   1.284       .  A
O464       Ni471   1.919       .  S
O464        C474   1.281       .  A
O465       Ni471   1.911       .  S
O465        C475   1.280       .  A
O466       Ni471   1.914       .  S
O466        C476   1.280       .  A
O467       Ni472   1.917       .  S
O467        C476   1.281       .  A
O468       Ni472   1.920       .  S
O468        C475   1.282       .  A
O469       Ni472   1.917       .  S
O469        C474   1.281       .  A
O470       Ni472   1.919       .  S
O470        C473   1.280       .  A
Ni471      Ni472   2.386       .  S
C473        C901   1.493       .  S
C474        C913   1.476       .  S
C475        C949   1.481       .  S
C476       C1216   1.475       .  S
O477       Ni485   1.922       .  S
O477        C487   1.283       .  A
O478       Ni485   1.921       .  S
O478        C488   1.281       .  A
O479       Ni485   1.918       .  S
O479        C489   1.281       .  A
O480       Ni485   1.915       .  S
O480        C490   1.281       .  A
O481       Ni486   1.918       .  S
O481        C490   1.282       .  A
O482       Ni486   1.916       .  S
O482        C489   1.281       .  A
O483       Ni486   1.916       .  S
O483        C488   1.281       .  A
O484       Ni486   1.914       .  S
O484        C487   1.280       .  A
Ni485      Ni486   2.388       .  S
C487        C880   1.482       .  S
C488        C916   1.477       .  S
C489       C1504   1.474       .  S
C490        C889   1.480       .  S
O491       Ni499   1.915       .  S
O491        C501   1.281       .  A
O492       Ni499   1.917       .  S
O492        C502   1.283       .  A
O493       Ni499   1.915       .  S
O493        C503   1.281       .  A
O494       Ni499   1.915       .  S
O494        C504   1.280       .  A
O495       Ni500   1.915       .  S
O495        C504   1.280       .  A
O496       Ni500   1.918       .  S
O496        C503   1.281       .  A
O497       Ni500   1.913       .  S
O497        C502   1.279       .  A
O498       Ni500   1.917       .  S
O498        C501   1.281       .  A
Ni499      Ni500   2.388       .  S
C501        C865   1.474       .  S
C502        C940   1.492       .  S
C503        C892   1.478       .  S
C504       C1525   1.465       .  S
O505       Ni513   1.917       .  S
O505        C515   1.282       .  A
O506       Ni513   1.917       .  S
O506        C516   1.281       .  A
O507       Ni513   1.911       .  S
O507        C517   1.281       .  A
O508       Ni513   1.915       .  S
O508        C518   1.281       .  A
O509       Ni514   1.918       .  S
O509        C518   1.281       .  A
O510       Ni514   1.919       .  S
O510        C517   1.281       .  A
O511       Ni514   1.916       .  S
O511        C516   1.281       .  A
O512       Ni514   1.913       .  S
O512        C515   1.280       .  A
Ni513      Ni514   2.387       .  S
C515        C853   1.485       .  S
C516       C1588   1.474       .  S
C517        C844   1.481       .  S
C518        C832   1.480       .  S
O519       Ni527   1.914       .  S
O519        C529   1.280       .  A
O520       Ni527   1.914       .  S
O520        C530   1.280       .  A
O521       Ni527   1.910       .  S
O521        C531   1.281       .  A
O522       Ni527   1.910       .  S
O522        C532   1.278       .  A
O523       Ni528   1.921       .  S
O523        C532   1.283       .  A
O524       Ni528   1.917       .  S
O524        C531   1.281       .  A
O525       Ni528   1.924       .  S
O525        C530   1.283       .  A
O526       Ni528   1.920       .  S
O526        C529   1.282       .  A
Ni527      Ni528   2.386       .  S
C529        C808   1.475       .  S
C530        C820   1.484       .  S
C531        C856   1.483       .  S
C532       C1564   1.483       .  S
O533       Ni541   1.918       .  S
O533        C543   1.281       .  A
O534       Ni541   1.918       .  S
O534        C544   1.281       .  A
O535       Ni541   1.918       .  S
O535        C545   1.282       .  A
O536       Ni541   1.922       .  S
O536        C546   1.283       .  A
O537       Ni542   1.908       .  S
O537        C546   1.278       .  A
O538       Ni542   1.910       .  S
O538        C545   1.279       .  A
O539       Ni542   1.921       .  S
O539        C544   1.282       .  A
O540       Ni542   1.919       .  S
O540        C543   1.282       .  A
Ni541      Ni542   2.387       .  S
C543        C817   1.483       .  S
C544        C781   1.480       .  S
C545       C1381   1.474       .  S
C546        C793   1.487       .  S
O547       Ni555   1.917       .  S
O547        C557   1.281       .  A
O548       Ni555   1.918       .  S
O548        C558   1.281       .  A
O549       Ni555   1.918       .  S
O549        C559   1.282       .  A
O550       Ni555   1.922       .  S
O550        C560   1.282       .  A
O551       Ni556   1.913       .  S
O551        C560   1.281       .  A
O552       Ni556   1.913       .  S
O552        C559   1.280       .  A
O553       Ni556   1.913       .  S
O553        C558   1.282       .  A
O554       Ni556   1.915       .  S
O554        C557   1.281       .  A
Ni555      Ni556   2.387       .  S
C557       C1408   1.475       .  S
C558        C796   1.486       .  S
C559        C841   1.481       .  S
C560        C772   1.480       .  S
O561       Ni569   1.914       .  S
O561        C571   1.281       .  A
O562       Ni569   1.910       .  S
O562        C572   1.279       .  A
O563       Ni569   1.923       .  S
O563        C573   1.282       .  A
O564       Ni569   1.918       .  S
O564        C574   1.282       .  A
O565       Ni570   1.913       .  S
O565        C574   1.280       .  A
O566       Ni570   1.911       .  S
O566        C573   1.279       .  A
O567       Ni570   1.920       .  S
O567        C572   1.282       .  A
O568       Ni570   1.918       .  S
O568        C571   1.281       .  A
Ni569      Ni570   2.388       .  S
C571        C745   1.488       .  S
C572        C976   1.474       .  S
C573       C1117   1.474       .  S
C574        C757   1.480       .  S
O575       Ni583   1.917       .  S
O575        C585   1.281       .  A
O576       Ni583   1.920       .  S
O576        C586   1.282       .  A
O577       Ni583   1.918       .  S
O577        C587   1.281       .  A
O578       Ni583   1.914       .  S
O578        C588   1.281       .  A
O579       Ni584   1.917       .  S
O579        C588   1.281       .  A
O580       Ni584   1.913       .  S
O580        C587   1.280       .  A
O581       Ni584   1.911       .  S
O581        C586   1.280       .  A
O582       Ni584   1.916       .  S
O582        C585   1.280       .  A
Ni583      Ni584   2.389       .  S
C585       C1060   1.472       .  S
C586        C760   1.480       .  S
C587        C829   1.472       .  S
C588        C733   1.484       .  S
O589       Ni597   1.914       .  S
O589        C599   1.280       .  A
O590       Ni597   1.913       .  S
O590        C600   1.280       .  A
O591       Ni597   1.917       .  S
O591        C601   1.281       .  A
O592       Ni597   1.919       .  S
O592        C602   1.281       .  A
O593       Ni598   1.912       .  S
O593        C602   1.280       .  A
O594       Ni598   1.917       .  S
O594        C601   1.281       .  A
O595       Ni598   1.919       .  S
O595        C600   1.282       .  A
O596       Ni598   1.922       .  S
O596        C599   1.282       .  A
Ni597      Ni598   2.388       .  S
C599        C769   1.476       .  S
C600        C736   1.484       .  S
C601        C928   1.478       .  S
C602        C721   1.472       .  S
O603       Ni611   1.921       .  S
O603        C613   1.282       .  A
O604       Ni611   1.917       .  S
O604        C614   1.281       .  A
O605       Ni611   1.920       .  S
O605        C615   1.281       .  A
O606       Ni611   1.918       .  S
O606        C616   1.281       .  A
O607       Ni612   1.913       .  S
O607        C616   1.280       .  A
O608       Ni612   1.912       .  S
O608        C615   1.280       .  A
O609       Ni612   1.917       .  S
O609        C614   1.282       .  A
O610       Ni612   1.912       .  S
O610        C613   1.281       .  A
Ni611      Ni612   2.386       .  S
C613       C1024   1.484       .  S
C614        C748   1.489       .  S
C615        C868   1.478       .  S
C616        C724   1.472       .  S
O617       Ni625   1.916       .  S
O617        C627   1.280       .  A
O618       Ni625   1.914       .  S
O618        C628   1.281       .  A
O619       Ni625   1.918       .  S
O619        C629   1.281       .  A
O620       Ni625   1.918       .  S
O620        C630   1.281       .  A
O621       Ni626   1.915       .  S
O621        C630   1.280       .  A
O622       Ni626   1.916       .  S
O622        C629   1.281       .  A
O623       Ni626   1.919       .  S
O623        C628   1.282       .  A
O624       Ni626   1.918       .  S
O624        C627   1.283       .  A
Ni625      Ni626   2.387       .  S
C627       C1072   1.488       .  S
C628        C697   1.481       .  S
C629        C805   1.477       .  S
C630        C709   1.476       .  S
O631       Ni639   1.919       .  S
O631        C641   1.281       .  A
O632       Ni639   1.913       .  S
O632        C642   1.281       .  A
O633       Ni639   1.921       .  S
O633        C643   1.281       .  A
O634       Ni639   1.914       .  S
O634        C644   1.281       .  A
O635       Ni640   1.924       .  S
O635        C644   1.282       .  A
O636       Ni640   1.920       .  S
O636        C643   1.281       .  A
O637       Ni640   1.919       .  S
O637        C642   1.281       .  A
O638       Ni640   1.918       .  S
O638        C641   1.282       .  A
Ni639      Ni640   2.389       .  S
C641        C784   1.480       .  S
C642        C712   1.475       .  S
C643        C904   1.473       .  S
C644        C685   1.481       .  S
O645       Ni653   1.922       .  S
O645        C655   1.282       .  A
O646       Ni653   1.918       .  S
O646        C656   1.282       .  A
O647       Ni653   1.919       .  S
O647        C657   1.281       .  A
O648       Ni653   1.922       .  S
O648        C658   1.281       .  A
O649       Ni654   1.914       .  S
O649        C658   1.281       .  A
O650       Ni654   1.918       .  S
O650        C657   1.280       .  A
O651       Ni654   1.918       .  S
O651        C656   1.281       .  A
O652       Ni654   1.915       .  S
O652        C655   1.281       .  A
Ni653      Ni654   2.388       .  S
C655       C1000   1.480       .  S
C656        C673   1.481       .  S
C657        C877   1.476       .  S
C658        C688   1.479       .  S
O659       Ni667   1.916       .  S
O659        C669   1.281       .  A
O660       Ni667   1.910       .  S
O660        C670   1.281       .  A
O661       Ni667   1.918       .  S
O661        C671   1.282       .  A
O662       Ni667   1.915       .  S
O662        C672   1.281       .  A
O663       Ni668   1.917       .  S
O663        C672   1.281       .  A
O664       Ni668   1.917       .  S
O664        C671   1.281       .  A
O665       Ni668   1.922       .  S
O665        C670   1.282       .  A
O666       Ni668   1.920       .  S
O666        C669   1.282       .  A
Ni667      Ni668   2.388       .  S
C669       C1096   1.478       .  S
C670        C700   1.480       .  S
C671        C676   1.480       .  S
C672        C964   1.476       .  S
C673        C674   1.406       .  A
C673        C678   1.414       .  A
C674        C675   1.405       .  A
C674        H683   1.082       .  S
C675        C676   1.413       .  A
C675        S679   1.809       .  S
C676        C677   1.403       .  A
C677        C678   1.398       .  A
C677        H684   1.083       .  S
C678        S680   1.802       .  S
S679        H682   1.407       .  S
S680        H681   1.406       .  S
C685        C686   1.403       .  A
C685        C690   1.416       .  A
C686        C687   1.395       .  A
C686        H695   1.082       .  S
C687        C688   1.412       .  A
C687        S691   1.803       .  S
C688        C689   1.405       .  A
C689        C690   1.404       .  A
C689        H696   1.084       .  S
C690        S692   1.803       .  S
S691        H694   1.406       .  S
S692        H693   1.406       .  S
C697        C698   1.405       .  A
C697        C702   1.414       .  A
C698        C699   1.402       .  A
C698        H707   1.084       .  S
C699        C700   1.415       .  A
C699        S703   1.803       .  S
C700        C701   1.403       .  A
C701        C702   1.395       .  A
C701        H708   1.084       .  S
C702        S704   1.802       .  S
S703        H706   1.408       .  S
S704        H705   1.404       .  S
C709        C710   1.402       .  A
C709        C714   1.414       .  A
C710        C711   1.397       .  A
C710        H719   1.081       .  S
C711        C712   1.413       .  A
C711        S715   1.804       .  S
C712        C713   1.404       .  A
C713        C714   1.401       .  A
C713        H720   1.083       .  S
C714        S716   1.804       .  S
S715        H718   1.406       .  S
S716        H717   1.407       .  S
C721        C722   1.402       .  A
C721        C726   1.413       .  A
C722        C723   1.399       .  A
C722        H731   1.084       .  S
C723        C724   1.412       .  A
C723        S727   1.804       .  S
C724        C725   1.402       .  A
C725        C726   1.399       .  A
C725        H732   1.084       .  S
C726        S728   1.804       .  S
S727        H730   1.407       .  S
S728        H729   1.407       .  S
C733        C734   1.405       .  A
C733        C738   1.415       .  A
C734        C735   1.398       .  A
C734        H743   1.084       .  S
C735        C736   1.416       .  A
C735        S739   1.803       .  S
C736        C737   1.405       .  A
C737        C738   1.400       .  A
C737        H744   1.083       .  S
C738        S740   1.803       .  S
S739        H742   1.408       .  S
S740        H741   1.408       .  S
C745        C746   1.406       .  A
C745        C750   1.415       .  A
C746        C747   1.404       .  A
C746        H755   1.082       .  S
C747        C748   1.417       .  A
C747        S751   1.810       .  S
C748        C749   1.406       .  A
C749        C750   1.398       .  A
C749        H756   1.084       .  S
C750        S752   1.803       .  S
S751        H754   1.406       .  S
S752        H753   1.408       .  S
C757        C758   1.403       .  A
C757        C762   1.416       .  A
C758        C759   1.398       .  A
C758        H767   1.084       .  S
C759        C760   1.415       .  A
C759        S763   1.803       .  S
C760        C761   1.404       .  A
C761        C762   1.400       .  A
C761        H768   1.084       .  S
C762        S764   1.804       .  S
S763        H766   1.408       .  S
S764        H765   1.407       .  S
C769        C770   1.404       .  A
C769        C774   1.412       .  A
C770        C771   1.402       .  A
C770        H779   1.084       .  S
C771        C772   1.416       .  A
C771        S775   1.803       .  S
C772        C773   1.404       .  A
C773        C774   1.397       .  A
C773        H780   1.084       .  S
C774        S776   1.804       .  S
S775        H778   1.405       .  S
S776        H777   1.407       .  S
C781        C782   1.404       .  A
C781        C786   1.414       .  A
C782        C783   1.401       .  A
C782        H791   1.084       .  S
C783        C784   1.415       .  A
C783        S787   1.801       .  S
C784        C785   1.402       .  A
C785        C786   1.399       .  A
C785        H792   1.083       .  S
C786        S788   1.800       .  S
S787        H790   1.405       .  S
S788        H789   1.407       .  S
C793        C794   1.406       .  A
C793        C798   1.417       .  A
C794        C795   1.401   1_556  A
C794        H803   1.084       .  S
C795        C796   1.417       .  A
C795        S799   1.802       .  S
C796        C797   1.404       .  A
C797        C798   1.396   1_554  A
C797        H804   1.084       .  S
C798        S800   1.800       .  S
S799        H802   1.408       .  S
S800        H801   1.408       .  S
C805        C806   1.404       .  A
C805        C810   1.413       .  A
C806        C807   1.400       .  A
C806        H815   1.084       .  S
C807        C808   1.413       .  A
C807        S811   1.803       .  S
C808        C809   1.403       .  A
C809        C810   1.399       .  A
C809        H816   1.084       .  S
C810        S812   1.802       .  S
S811        H814   1.407       .  S
S812        H813   1.407       .  S
C817        C818   1.403       .  A
C817        C822   1.415       .  A
C818        C819   1.402   1_655  A
C818        H827   1.082       .  S
C819        C820   1.414       .  A
C819        S823   1.806       .  S
C820        C821   1.405       .  A
C821        C822   1.401   1_455  A
C821        H828   1.084       .  S
C822        S824   1.803       .  S
S823        H826   1.407       .  S
S824        H825   1.408       .  S
C829        C830   1.401       .  A
C829        C834   1.412       .  A
C830        C831   1.399       .  A
C830        H839   1.084       .  S
C831        C832   1.415       .  A
C831        S835   1.797       .  S
C832        C833   1.405       .  A
C833        C834   1.399       .  A
C833        H840   1.084       .  S
C834        S836   1.804       .  S
S835        H838   1.407       .  S
S836        H837   1.407       .  S
C841        C842   1.406       .  A
C841        C846   1.413       .  A
C842        C843   1.400   1_655  A
C842        H851   1.083       .  S
C843        C844   1.415       .  A
C843        S847   1.803       .  S
C844        C845   1.405       .  A
C845        C846   1.397   1_455  A
C845        H852   1.083       .  S
C846        S848   1.803       .  S
S847        H850   1.408       .  S
S848        H849   1.407       .  S
C853        C854   1.406       .  A
C853        C858   1.416       .  A
C854        C855   1.399   1_554  A
C854        H863   1.084       .  S
C855        C856   1.415       .  A
C855        S859   1.803       .  S
C856        C857   1.404       .  A
C857        C858   1.400   1_556  A
C857        H864   1.083       .  S
C858        S860   1.808       .  S
S859        H862   1.408       .  S
S860        H861   1.407   1_554  S
C865        C866   1.403       .  A
C865        C870   1.412       .  A
C866        C867   1.400       .  A
C866        H875   1.084       .  S
C867        C868   1.413       .  A
C867        S871   1.798       .  S
C868        C869   1.404       .  A
C869        C870   1.398       .  A
C869        H876   1.084       .  S
C870        S872   1.803       .  S
S871        H874   1.407       .  S
S872        H873   1.406       .  S
C877        C878   1.401       .  A
C877        C882   1.412       .  A
C878        C879   1.399       .  A
C878        H887   1.082       .  S
C879        C880   1.416       .  A
C879        S883   1.803       .  S
C880        C881   1.405       .  A
C881        C882   1.401       .  A
C881        H888   1.084       .  S
C882        S884   1.800       .  S
S883        H886   1.407       .  S
S884        H885   1.406       .  S
C889        C890   1.405       .  A
C889        C894   1.415       .  A
C890        C891   1.400   1_556  A
C890        H899   1.084       .  S
C891        C892   1.414       .  A
C891        S895   1.804       .  S
C892        C893   1.403       .  A
C893        C894   1.399   1_554  A
C893        H900   1.084       .  S
C894        S896   1.803       .  S
S895        H898   1.407       .  S
S896        H897   1.408       .  S
C901        C902   1.408       .  A
C901        C906   1.421       .  A
C902        C903   1.399       .  A
C902        H911   1.084       .  S
C903        C904   1.408       .  A
C903        S907   1.802       .  S
C904        C905   1.400       .  A
C905        C906   1.403       .  A
C905        H912   1.085       .  S
C906        S908   1.799       .  S
S907        H910   1.406       .  S
S908        H909   1.408       .  S
C913        C914   1.403       .  A
C913        C918   1.413       .  A
C914        C915   1.402   1_565  A
C914        H923   1.082       .  S
C915        C916   1.411       .  A
C915        S919   1.808       .  S
C916        C917   1.404       .  A
C917        C918   1.402   1_545  A
C917        H924   1.083       .  S
C918        S920   1.804       .  S
S919        H922   1.407       .  S
S920        H921   1.407       .  S
C925        C926   1.402       .  A
C925        C930   1.412       .  A
C926        C927   1.400       .  A
C926        H935   1.084       .  S
C927        C928   1.415       .  A
C927        S931   1.803       .  S
C928        C929   1.404       .  A
C929        C930   1.399       .  A
C929        H936   1.084       .  S
C930        S932   1.800       .  S
S931        H934   1.407       .  S
S932        H933   1.407       .  S
C937        C938   1.407       .  A
C937        C942   1.419       .  A
C938        C939   1.399   1_565  A
C938        H947   1.083       .  S
C939        C940   1.419       .  A
C939        S943   1.801       .  S
C940        C941   1.406       .  A
C941        C942   1.398   1_545  A
C941        H948   1.083       .  S
C942        S944   1.801       .  S
S943        H946   1.408       .  S
S944        H945   1.408       .  S
C949        C950   1.405       .  A
C949        C954   1.414       .  A
C950        C951   1.398   1_556  A
C950        H959   1.084       .  S
C951        C952   1.415       .  A
C951        S955   1.803       .  S
C952        C953   1.406       .  A
C953        C954   1.399   1_554  A
C953        H960   1.084       .  S
C954        S956   1.803       .  S
S955        H958   1.408       .  S
S956        H957   1.408       .  S
C961        C962   1.404       .  A
C961        C966   1.414       .  A
C962        C963   1.398       .  A
C962        H971   1.083       .  S
C963        C964   1.413       .  A
C963        S967   1.804       .  S
C964        C965   1.404       .  A
C965        C966   1.400       .  A
C965        H972   1.084       .  S
C966        S968   1.804       .  S
S967        H970   1.407       .  S
S968        H969   1.404       .  S
C973        C974   1.402       .  A
C973        C978   1.414       .  A
C974        C975   1.399       .  A
C974        H983   1.084       .  S
C975        C976   1.415       .  A
C975        S979   1.804       .  S
C976        C977   1.402       .  A
C977        C978   1.399       .  A
C977        H984   1.084       .  S
C978        S980   1.803       .  S
S979        H982   1.406       .  S
S980        H981   1.406       .  S
C985        C986   1.404       .  A
C985        C990   1.416       .  A
C986        C987   1.397   1_554  A
C986        H995   1.083       .  S
C987        C988   1.415       .  A
C987        S991   1.803       .  S
C988        C989   1.404       .  A
C989        C990   1.400   1_556  A
C989        H996   1.083       .  S
C990        S992   1.803       .  S
S991        H994   1.406       .  S
S992        H993   1.408       .  S
C997        C998   1.404       .  A
C997       C1002   1.412       .  A
C998        C999   1.401       .  A
C998       H1007   1.084       .  S
C999       C1000   1.415       .  A
C999       S1003   1.803       .  S
C1000      C1001   1.404       .  A
C1001      C1002   1.399       .  A
C1001      H1008   1.083       .  S
C1002      S1004   1.799       .  S
S1003      H1006   1.407       .  S
S1004      H1005   1.407       .  S
C1009      C1010   1.405       .  A
C1009      C1014   1.413       .  A
C1010      C1011   1.401   1_655  A
C1010      H1019   1.084       .  S
C1011      C1012   1.414       .  A
C1011      S1015   1.804       .  S
C1012      C1013   1.404       .  A
C1013      C1014   1.399   1_455  A
C1013      H1020   1.084       .  S
C1014      S1016   1.803       .  S
S1015      H1018   1.407       .  S
S1016      H1017   1.407       .  S
C1021      C1022   1.401       .  A
C1021      C1026   1.409       .  A
C1022      C1023   1.401       .  A
C1022      H1031   1.084       .  S
C1023      C1024   1.418       .  A
C1023      S1027   1.802       .  S
C1024      C1025   1.407       .  A
C1025      C1026   1.398       .  A
C1025      H1032   1.084       .  S
C1026      S1028   1.804       .  S
S1027      H1030   1.408       .  S
S1028      H1029   1.406       .  S
C1033      C1034   1.404       .  A
C1033      C1038   1.414       .  A
C1034      C1035   1.400   1_655  A
C1034      H1043   1.084       .  S
C1035      C1036   1.413       .  A
C1035      S1039   1.802       .  S
C1036      C1037   1.404       .  A
C1037      C1038   1.399   1_455  A
C1037      H1044   1.084       .  S
C1038      S1040   1.802       .  S
S1039      H1042   1.406       .  S
S1040      H1041   1.407       .  S
C1045      C1046   1.406       .  A
C1045      C1050   1.416       .  A
C1046      C1047   1.402   1_556  A
C1046      H1055   1.082       .  S
C1047      C1048   1.417       .  A
C1047      S1051   1.810       .  S
C1048      C1049   1.406       .  A
C1049      C1050   1.398   1_554  A
C1049      H1056   1.083       .  S
C1050      S1052   1.803       .  S
S1051      H1054   1.406       .  S
S1052      H1053   1.408       .  S
C1057      C1058   1.405       .  A
C1057      C1062   1.416       .  A
C1058      C1059   1.399       .  A
C1058      H1067   1.084       .  S
C1059      C1060   1.411       .  A
C1059      S1063   1.804       .  S
C1060      C1061   1.401       .  A
C1061      C1062   1.399       .  A
C1061      H1068   1.084       .  S
C1062      S1064   1.803       .  S
S1063      H1066   1.406       .  S
S1064      H1065   1.407       .  S
C1069      C1070   1.400       .  A
C1069      C1074   1.408       .  A
C1070      C1071   1.401       .  A
C1070      H1079   1.084       .  S
C1071      C1072   1.419       .  A
C1071      S1075   1.799       .  S
C1072      C1073   1.408       .  A
C1073      C1074   1.398       .  A
C1073      H1080   1.083       .  S
C1074      S1076   1.803       .  S
S1075      H1078   1.408       .  S
S1076      H1077   1.405       .  S
C1081      C1082   1.404       .  A
C1081      C1086   1.415       .  A
C1082      C1083   1.399   1_556  A
C1082      H1091   1.084       .  S
C1083      C1084   1.414       .  A
C1083      S1087   1.804       .  S
C1084      C1085   1.404       .  A
C1085      C1086   1.400   1_554  A
C1085      H1092   1.083       .  S
C1086      S1088   1.803       .  S
S1087      H1090   1.407       .  S
S1088      H1089   1.407       .  S
C1093      C1094   1.404       .  A
C1093      C1098   1.415       .  A
C1094      C1095   1.398       .  A
C1094      H1103   1.084       .  S
C1095      C1096   1.413       .  A
C1095      S1099   1.802       .  S
C1096      C1097   1.404       .  A
C1097      C1098   1.402       .  A
C1097      H1104   1.084       .  S
C1098      S1100   1.804       .  S
S1099      H1102   1.406       .  S
S1100      H1101   1.404       .  S
C1105      C1106   1.403       .  A
C1105      C1110   1.416       .  A
C1106      C1107   1.399   1_545  A
C1106      H1115   1.084       .  S
C1107      C1108   1.416       .  A
C1107      S1111   1.804       .  S
C1108      C1109   1.404       .  A
C1109      C1110   1.401   1_565  A
C1109      H1116   1.084       .  S
C1110      S1112   1.803       .  S
S1111      H1114   1.407       .  S
S1112      H1113   1.408       .  S
C1117      C1118   1.403       .  A
C1117      C1122   1.412       .  A
C1118      C1119   1.398       .  A
C1118      H1127   1.084       .  S
C1119      C1120   1.414       .  A
C1119      S1123   1.803       .  S
C1120      C1121   1.405       .  A
C1121      C1122   1.400       .  A
C1121      H1128   1.084       .  S
C1122      S1124   1.803       .  S
S1123      H1126   1.407       .  S
S1124      H1125   1.407       .  S
C1129      C1130   1.405       .  A
C1129      C1134   1.416       .  A
C1130      C1131   1.401   1_545  A
C1130      H1139   1.084       .  S
C1131      C1132   1.415       .  A
C1131      S1135   1.803       .  S
C1132      C1133   1.404       .  A
C1133      C1134   1.400   1_565  A
C1133      H1140   1.084       .  S
C1134      S1136   1.803       .  S
S1135      H1138   1.407       .  S
S1136      H1137   1.406       .  S
C1141      C1142   1.405       .  A
C1141      C1146   1.415       .  A
C1142      C1143   1.399   1_554  A
C1142      H1151   1.084       .  S
C1143      C1144   1.413       .  A
C1143      S1147   1.804       .  S
C1144      C1145   1.404       .  A
C1145      C1146   1.400   1_556  A
C1145      H1152   1.084       .  S
C1146      S1148   1.803       .  S
S1147      H1150   1.408       .  S
S1148      H1149   1.407       .  S
C1153      C1154   1.403       .  A
C1153      C1158   1.415       .  A
C1154      C1155   1.399   1_545  A
C1154      H1163   1.084       .  S
C1155      C1156   1.416       .  A
C1155      S1159   1.803       .  S
C1156      C1157   1.404       .  A
C1157      C1158   1.400   1_565  A
C1157      H1164   1.084       .  S
C1158      S1160   1.803       .  S
S1159      H1162   1.408       .  S
S1160      H1161   1.407       .  S
C1165      C1166   1.405       .  A
C1165      C1170   1.415       .  A
C1166      C1167   1.398   1_655  A
C1166      H1175   1.084       .  S
C1167      C1168   1.413       .  A
C1167      S1171   1.803       .  S
C1168      C1169   1.405       .  A
C1169      C1170   1.399   1_455  A
C1169      H1176   1.084       .  S
C1170      S1172   1.803       .  S
S1171      H1174   1.407       .  S
S1172      H1173   1.407       .  S
C1177      C1178   1.404       .  A
C1177      C1182   1.413       .  A
C1178      C1179   1.401   1_455  A
C1178      H1187   1.084       .  S
C1179      C1180   1.416       .  A
C1179      S1183   1.799       .  S
C1180      C1181   1.404       .  A
C1181      C1182   1.398   1_655  A
C1181      H1188   1.084       .  S
C1182      S1184   1.803       .  S
S1183      H1186   1.407       .  S
S1184      H1185   1.407       .  S
C1189      C1190   1.404       .  A
C1189      C1194   1.415       .  A
C1190      C1191   1.397   1_565  A
C1190      H1199   1.084       .  S
C1191      C1192   1.412       .  A
C1191      S1195   1.803       .  S
C1192      C1193   1.405       .  A
C1193      C1194   1.401   1_545  A
C1193      H1200   1.084       .  S
C1194      S1196   1.803       .  S
S1195      H1198   1.407       .  S
S1196      H1197   1.407       .  S
C1201      C1202   1.404       .  A
C1201      C1206   1.414       .  A
C1202      C1203   1.400       .  A
C1202      H1211   1.084       .  S
C1203      C1204   1.414       .  A
C1203      S1207   1.804       .  S
C1204      C1205   1.403       .  A
C1205      C1206   1.400       .  A
C1205      H1212   1.084       .  S
C1206      S1208   1.803       .  S
S1207      H1210   1.404       .  S
S1208      H1209   1.407       .  S
C1213      C1214   1.403       .  A
C1213      C1218   1.415       .  A
C1214      C1215   1.397       .  A
C1214      H1223   1.081       .  S
C1215      C1216   1.412       .  A
C1215      S1219   1.802       .  S
C1216      C1217   1.404       .  A
C1217      C1218   1.401       .  A
C1217      H1224   1.084       .  S
C1218      S1220   1.805       .  S
S1219      H1222   1.406       .  S
S1220      H1221   1.404       .  S
C1225      C1226   1.404       .  A
C1225      C1230   1.414       .  A
C1226      C1227   1.401       .  A
C1226      H1235   1.084       .  S
C1227      C1228   1.414       .  A
C1227      S1231   1.803       .  S
C1228      C1229   1.403       .  A
C1229      C1230   1.399       .  A
C1229      H1236   1.085       .  S
C1230      S1232   1.805       .  S
S1231      H1234   1.407       .  S
S1232      H1233   1.403       .  S
C1237      C1238   1.404       .  A
C1237      C1242   1.414       .  A
C1238      C1239   1.400       .  A
C1238      H1247   1.084       .  S
C1239      C1240   1.415       .  A
C1239      S1243   1.803       .  S
C1240      C1241   1.402       .  A
C1241      C1242   1.398       .  A
C1241      H1248   1.084       .  S
C1242      S1244   1.802       .  S
S1243      H1246   1.407       .  S
S1244      H1245   1.406       .  S
C1249      C1250   1.402       .  A
C1249      C1254   1.414       .  A
C1250      C1251   1.400       .  A
C1250      H1259   1.084       .  S
C1251      C1252   1.414       .  A
C1251      S1255   1.799       .  S
C1252      C1253   1.403       .  A
C1253      C1254   1.398       .  A
C1253      H1260   1.083       .  S
C1254      S1256   1.805       .  S
S1255      H1258   1.407       .  S
S1256      H1257   1.404       .  S
C1261      C1262   1.403       .  A
C1261      C1266   1.416       .  A
C1262      C1263   1.398       .  A
C1262      H1271   1.084       .  S
C1263      C1264   1.413       .  A
C1263      S1267   1.803       .  S
C1264      C1265   1.402       .  A
C1265      C1266   1.400       .  A
C1265      H1272   1.084       .  S
C1266      S1268   1.804       .  S
S1267      H1270   1.405       .  S
S1268      H1269   1.405       .  S
C1273      C1274   1.404       .  A
C1273      C1278   1.414       .  A
C1274      C1275   1.399       .  A
C1274      H1283   1.084       .  S
C1275      C1276   1.415       .  A
C1275      S1279   1.802       .  S
C1276      C1277   1.405       .  A
C1277      C1278   1.400       .  A
C1277      H1284   1.083       .  S
C1278      S1280   1.803       .  S
S1279      H1282   1.405       .  S
S1280      H1281   1.408       .  S
C1285      C1286   1.401       .  A
C1285      C1290   1.411       .  A
C1286      C1287   1.401       .  A
C1286      H1295   1.085       .  S
C1287      C1288   1.417       .  A
C1287      S1291   1.802       .  S
C1288      C1289   1.405       .  A
C1289      C1290   1.399       .  A
C1289      H1296   1.084       .  S
C1290      S1292   1.803       .  S
S1291      H1294   1.405       .  S
S1292      H1293   1.406       .  S
C1297      C1298   1.404       .  A
C1297      C1302   1.418       .  A
C1298      C1299   1.399       .  A
C1298      H1307   1.083       .  S
C1299      C1300   1.416       .  A
C1299      S1303   1.803       .  S
C1300      C1301   1.406       .  A
C1301      C1302   1.402       .  A
C1301      H1308   1.083       .  S
C1302      S1304   1.803       .  S
S1303      H1306   1.407       .  S
S1304      H1305   1.408       .  S
C1309      C1310   1.406       .  A
C1309      C1314   1.414       .  A
C1310      C1311   1.400       .  A
C1310      H1319   1.084       .  S
C1311      C1312   1.414       .  A
C1311      S1315   1.803       .  S
C1312      C1313   1.405       .  A
C1313      C1314   1.398       .  A
C1313      H1320   1.084       .  S
C1314      S1316   1.803       .  S
S1315      H1318   1.408       .  S
S1316      H1317   1.408       .  S
C1321      C1322   1.403       .  A
C1321      C1326   1.413       .  A
C1322      C1323   1.400       .  A
C1322      H1331   1.085       .  S
C1323      C1324   1.415       .  A
C1323      S1327   1.803       .  S
C1324      C1325   1.403       .  A
C1325      C1326   1.398       .  A
C1325      H1332   1.085       .  S
C1326      S1328   1.803       .  S
S1327      H1330   1.407       .  S
S1328      H1329   1.406       .  S
C1333      C1334   1.403       .  A
C1333      C1338   1.415       .  A
C1334      C1335   1.399       .  A
C1334      H1343   1.084       .  S
C1335      C1336   1.413       .  A
C1335      S1339   1.803       .  S
C1336      C1337   1.402       .  A
C1337      C1338   1.399       .  A
C1337      H1344   1.084       .  S
C1338      S1340   1.802       .  S
S1339      H1342   1.406       .  S
S1340      H1341   1.405       .  S
C1345      C1346   1.403       .  A
C1345      C1350   1.412       .  A
C1346      C1347   1.399       .  A
C1346      H1355   1.084       .  S
C1347      C1348   1.415       .  A
C1347      S1351   1.803       .  S
C1348      C1349   1.404       .  A
C1349      C1350   1.399       .  A
C1349      H1356   1.084       .  S
C1350      S1352   1.803       .  S
S1351      H1354   1.407       .  S
S1352      H1353   1.407       .  S
C1357      C1358   1.404       .  A
C1357      C1362   1.413       .  A
C1358      C1359   1.400       .  A
C1358      H1367   1.084       .  S
C1359      C1360   1.415       .  A
C1359      S1363   1.803       .  S
C1360      C1361   1.404       .  A
C1361      C1362   1.397       .  A
C1361      H1368   1.083       .  S
C1362      S1364   1.803       .  S
S1363      H1366   1.408       .  S
S1364      H1365   1.408       .  S
C1369      C1370   1.403       .  A
C1369      C1374   1.415       .  A
C1370      C1371   1.399       .  A
C1370      H1379   1.084       .  S
C1371      C1372   1.414       .  A
C1371      S1375   1.802       .  S
C1372      C1373   1.403       .  A
C1373      C1374   1.402       .  A
C1373      H1380   1.084       .  S
C1374      S1376   1.803       .  S
S1375      H1378   1.406       .  S
S1376      H1377   1.407       .  S
C1381      C1382   1.402       .  A
C1381      C1386   1.415       .  A
C1382      C1383   1.398       .  A
C1382      H1391   1.084       .  S
C1383      C1384   1.414       .  A
C1383      S1387   1.804       .  S
C1384      C1385   1.400       .  A
C1385      C1386   1.397       .  A
C1385      H1392   1.084       .  S
C1386      S1388   1.802       .  S
S1387      H1390   1.404       .  S
S1388      H1389   1.405       .  S
C1393      C1394   1.403       .  A
C1393      C1398   1.417       .  A
C1394      C1395   1.398       .  A
C1394      H1403   1.084       .  S
C1395      C1396   1.415       .  A
C1395      S1399   1.803       .  S
C1396      C1397   1.404       .  A
C1397      C1398   1.400       .  A
C1397      H1404   1.084       .  S
C1398      S1400   1.804       .  S
S1399      H1402   1.408       .  S
S1400      H1401   1.406       .  S
C1405      C1406   1.404       .  A
C1405      C1410   1.414       .  A
C1406      C1407   1.398       .  A
C1406      H1415   1.083       .  S
C1407      C1408   1.413       .  A
C1407      S1411   1.804       .  S
C1408      C1409   1.403       .  A
C1409      C1410   1.400       .  A
C1409      H1416   1.084       .  S
C1410      S1412   1.803       .  S
S1411      H1414   1.405       .  S
S1412      H1413   1.407       .  S
C1417      C1418   1.405       .  A
C1417      C1422   1.415       .  A
C1418      C1419   1.405       .  A
C1418      H1427   1.082       .  S
C1419      C1420   1.414       .  A
C1419      S1423   1.808       .  S
C1420      C1421   1.404       .  A
C1421      C1422   1.398       .  A
C1421      H1428   1.083       .  S
C1422      S1424   1.803       .  S
S1423      H1426   1.407       .  S
S1424      H1425   1.407       .  S
C1429      C1430   1.404       .  A
C1429      C1434   1.415       .  A
C1430      C1431   1.400       .  A
C1430      H1439   1.083       .  S
C1431      C1432   1.415       .  A
C1431      S1435   1.803       .  S
C1432      C1433   1.403       .  A
C1433      C1434   1.399       .  A
C1433      H1440   1.083       .  S
C1434      S1436   1.802       .  S
S1435      H1438   1.407       .  S
S1436      H1437   1.406       .  S
C1441      C1442   1.403       .  A
C1441      C1446   1.413       .  A
C1442      C1443   1.396       .  A
C1442      H1451   1.083       .  S
C1443      C1444   1.413       .  A
C1443      S1447   1.804       .  S
C1444      C1445   1.405       .  A
C1445      C1446   1.401       .  A
C1445      H1452   1.084       .  S
C1446      S1448   1.803       .  S
S1447      H1450   1.404       .  S
S1448      H1449   1.407       .  S
C1453      C1454   1.402       .  A
C1453      C1458   1.411       .  A
C1454      C1455   1.401       .  A
C1454      H1463   1.085       .  S
C1455      C1456   1.416       .  A
C1455      S1459   1.802       .  S
C1456      C1457   1.406       .  A
C1457      C1458   1.398       .  A
C1457      H1464   1.084       .  S
C1458      S1460   1.804       .  S
S1459      H1462   1.406       .  S
S1460      H1461   1.405       .  S
C1465      C1466   1.404       .  A
C1465      C1470   1.415       .  A
C1466      C1467   1.399       .  A
C1466      H1475   1.084       .  S
C1467      C1468   1.413       .  A
C1467      S1471   1.803       .  S
C1468      C1469   1.402       .  A
C1469      C1470   1.399       .  A
C1469      H1476   1.084       .  S
C1470      S1472   1.802       .  S
S1471      H1474   1.407       .  S
S1472      H1473   1.406       .  S
C1477      C1478   1.404       .  A
C1477      C1482   1.415       .  A
C1478      C1479   1.400       .  A
C1478      H1487   1.084       .  S
C1479      C1480   1.417       .  A
C1479      S1483   1.803       .  S
C1480      C1481   1.405       .  A
C1481      C1482   1.400       .  A
C1481      H1488   1.084       .  S
C1482      S1484   1.803       .  S
S1483      H1486   1.407       .  S
S1484      H1485   1.408       .  S
C1489      C1490   1.404       .  A
C1489      C1494   1.414       .  A
C1490      C1491   1.398       .  A
C1490      H1499   1.084       .  S
C1491      C1492   1.412       .  A
C1491      S1495   1.802       .  S
C1492      C1493   1.403       .  A
C1493      C1494   1.400       .  A
C1493      H1500   1.083       .  S
C1494      S1496   1.802       .  S
S1495      H1498   1.406       .  S
S1496      H1497   1.406       .  S
C1501      C1502   1.406       .  A
C1501      C1506   1.414       .  A
C1502      C1503   1.403       .  A
C1502      H1511   1.082       .  S
C1503      C1504   1.410       .  A
C1503      S1507   1.808       .  S
C1504      C1505   1.402       .  A
C1505      C1506   1.399       .  A
C1505      H1512   1.084       .  S
C1506      S1508   1.799       .  S
S1507      H1510   1.407       .  S
S1508      H1509   1.407       .  S
C1513      C1514   1.404       .  A
C1513      C1518   1.414       .  A
C1514      C1515   1.399       .  A
C1514      H1523   1.085       .  S
C1515      C1516   1.416       .  A
C1515      S1519   1.802       .  S
C1516      C1517   1.404       .  A
C1517      C1518   1.399       .  A
C1517      H1524   1.084       .  S
C1518      S1520   1.803       .  S
S1519      H1522   1.405       .  S
S1520      H1521   1.407       .  S
C1525      C1526   1.397       .  A
C1525      C1530   1.407       .  A
C1526      C1527   1.399       .  A
C1526      H1535   1.085       .  S
C1527      C1528   1.424       .  A
C1527      S1531   1.802       .  S
C1528      C1529   1.410       .  A
C1529      C1530   1.399       .  A
C1529      H1536   1.083       .  S
C1530      S1532   1.804       .  S
S1531      H1534   1.399       .  S
S1532      H1533   1.405       .  S
C1537      C1538   1.404       .  A
C1537      C1542   1.414       .  A
C1538      C1539   1.402       .  A
C1538      H1547   1.084       .  S
C1539      C1540   1.414       .  A
C1539      S1543   1.804       .  S
C1540      C1541   1.402       .  A
C1541      C1542   1.398       .  A
C1541      H1548   1.084       .  S
C1542      S1544   1.804       .  S
S1543      H1546   1.407       .  S
S1544      H1545   1.407       .  S
C1549      C1550   1.404       .  A
C1549      C1554   1.414       .  A
C1550      C1551   1.396       .  A
C1550      H1559   1.084       .  S
C1551      C1552   1.414       .  A
C1551      S1555   1.802       .  S
C1552      C1553   1.405       .  A
C1553      C1554   1.400       .  A
C1553      H1560   1.083       .  S
C1554      S1556   1.803       .  S
S1555      H1558   1.405       .  S
S1556      H1557   1.407       .  S
C1561      C1562   1.399       .  A
C1561      C1566   1.411       .  A
C1562      C1563   1.397       .  A
C1562      H1571   1.085       .  S
C1563      C1564   1.417       .  A
C1563      S1567   1.798       .  S
C1564      C1565   1.406       .  A
C1565      C1566   1.400       .  A
C1565      H1572   1.084       .  S
C1566      S1568   1.804       .  S
S1567      H1570   1.407       .  S
S1568      H1569   1.406       .  S
C1573      C1574   1.404       .  A
C1573      C1578   1.413       .  A
C1574      C1575   1.401       .  A
C1574      H1583   1.084       .  S
C1575      C1576   1.414       .  A
C1575      S1579   1.803       .  S
C1576      C1577   1.405       .  A
C1577      C1578   1.400       .  A
C1577      H1584   1.084       .  S
C1578      S1580   1.804       .  S
S1579      H1582   1.406       .  S
S1580      H1581   1.407       .  S
C1585      C1586   1.404       .  A
C1585      C1590   1.416       .  A
C1586      C1587   1.399       .  A
C1586      H1595   1.084       .  S
C1587      C1588   1.412       .  A
C1587      S1591   1.803       .  S
C1588      C1589   1.402       .  A
C1589      C1590   1.400       .  A
C1589      H1596   1.084       .  S
C1590      S1592   1.804       .  S
S1591      H1594   1.406       .  S
S1592      H1593   1.405       .  S
C1597      C1598   1.406       .  A
C1597      C1602   1.415       .  A
C1598      C1599   1.403       .  A
C1598      H1607   1.083       .  S
C1599      C1600   1.414       .  A
C1599      S1603   1.809       .  S
C1600      C1601   1.405       .  A
C1601      C1602   1.398       .  A
C1601      H1608   1.084       .  S
C1602      S1604   1.803       .  S
S1603      H1606   1.407       .  S
S1604      H1605   1.408       .  S
C1609      C1610   1.403       .  A
C1609      C1614   1.412       .  A
C1610      C1611   1.401       .  A
C1610      H1619   1.084       .  S
C1611      C1612   1.414       .  A
C1611      S1615   1.803       .  S
C1612      C1613   1.402       .  A
C1613      C1614   1.396       .  A
C1613      H1620   1.084       .  S
C1614      S1616   1.802       .  S
S1615      H1618   1.406       .  S
S1616      H1617   1.406       .  S
C1621      C1622   1.403       .  A
C1621      C1626   1.413       .  A
C1622      C1623   1.398       .  A
C1622      H1631   1.082       .  S
C1623      C1624   1.414       .  A
C1623      S1627   1.805       .  S
C1624      C1625   1.404       .  A
C1625      C1626   1.400       .  A
C1625      H1632   1.084       .  S
C1626      S1628   1.801       .  S
S1627      H1630   1.404       .  S
S1628      H1629   1.407       .  S
C1633      C1634   1.406       .  A
C1633      C1638   1.419       .  A
C1634      C1635   1.397       .  A
C1634      H1643   1.083       .  S
C1635      C1636   1.419       .  A
C1635      S1639   1.802       .  S
C1636      C1637   1.407       .  A
C1637      C1638   1.401       .  A
C1637      H1644   1.083       .  S
C1638      S1640   1.802       .  S
S1639      H1642   1.408       .  S
S1640      H1641   1.406       .  S
C1645      C1646   1.404       .  A
C1645      C1650   1.414       .  A
C1646      C1647   1.399       .  A
C1646      H1655   1.084       .  S
C1647      C1648   1.415       .  A
C1647      S1651   1.805       .  S
C1648      C1649   1.404       .  A
C1649      C1650   1.400       .  A
C1649      H1656   1.083       .  S
C1650      S1652   1.803       .  S
S1651      H1654   1.402       .  S
S1652      H1653   1.407       .  S
C1657      C1658   1.404       .  A
C1657      C1662   1.416       .  A
C1658      C1659   1.400       .  A
C1658      H1667   1.084       .  S
C1659      C1660   1.414       .  A
C1659      S1663   1.803       .  S
C1660      C1661   1.403       .  A
C1661      C1662   1.400       .  A
C1661      H1668   1.084       .  S
C1662      S1664   1.804       .  S
S1663      H1666   1.407       .  S
S1664      H1665   1.403       .  S
C1669      C1670   1.405       .  A
C1669      C1674   1.413       .  A
C1670      C1671   1.401       .  A
C1670      H1679   1.083       .  S
C1671      C1672   1.414       .  A
C1671      S1675   1.803       .  S
C1672      C1673   1.404       .  A
C1673      C1674   1.399       .  A
C1673      H1680   1.083       .  S
C1674      S1676   1.803       .  S
S1675      H1678   1.406       .  S
S1676      H1677   1.407       .  S
C1681      C1682   1.403       .  A
C1681      C1686   1.413       .  A
C1682      C1683   1.399       .  A
C1682      H1691   1.084       .  S
C1683      C1684   1.415       .  A
C1683      S1687   1.804       .  S
C1684      C1685   1.405       .  A
C1685      C1686   1.400       .  A
C1685      H1692   1.084       .  S
C1686      S1688   1.804       .  S
S1687      H1690   1.405       .  S
S1688      H1689   1.403       .  S
C1693      C1694   1.403       .  A
C1693      C1698   1.414       .  A
C1694      C1695   1.400       .  A
C1694      H1703   1.084       .  S
C1695      C1696   1.414       .  A
C1695      S1699   1.802       .  S
C1696      C1697   1.404       .  A
C1697      C1698   1.400       .  A
C1697      H1704   1.084       .  S
C1698      S1700   1.802       .  S
S1699      H1702   1.406       .  S
S1700      H1701   1.406       .  S
C1705      C1706   1.401       .  A
C1705      C1710   1.411       .  A
C1706      C1707   1.401       .  A
C1706      H1715   1.083       .  S
C1707      C1708   1.413       .  A
C1707      S1711   1.809       .  S
C1708      C1709   1.405       .  A
C1709      C1710   1.404       .  A
C1709      H1716   1.084       .  S
C1710      S1712   1.807       .  S
S1711      H1714   1.407       .  S
S1712      H1713   1.407       .  S
C1717      C1718   1.407       .  A
C1717      C1722   1.415       .  A
C1718      C1719   1.403       .  A
C1718      H1727   1.084       .  S
C1719      C1720   1.412       .  A
C1719      S1723   1.804       .  S
C1720      C1721   1.399       .  A
C1721      C1722   1.396       .  A
C1721      H1728   1.083       .  S
C1722      S1724   1.797       .  S
S1723      H1726   1.406       .  S
S1724      H1725   1.406       .  S
C1729      C1730   1.404       .  A
C1729      C1734   1.414       .  A
C1730      C1731   1.400   1_545  A
C1730      H1739   1.084       .  S
C1731      C1732   1.415       .  A
C1731      S1735   1.804       .  S
C1732      C1733   1.405       .  A
C1733      C1734   1.399   1_565  A
C1733      H1740   1.083       .  S
C1734      S1736   1.804       .  S
S1735      H1738   1.405       .  S
S1736      H1737   1.407       .  S
C1741      C1742   1.401       .  A
C1741      C1746   1.411       .  A
C1742      C1743   1.400       .  A
C1742      H1751   1.084       .  S
C1743      C1744   1.417       .  A
C1743      S1747   1.802       .  S
C1744      C1745   1.406       .  A
C1745      C1746   1.400       .  A
C1745      H1752   1.084       .  S
C1746      S1748   1.800       .  S
S1747      H1750   1.406       .  S
S1748      H1749   1.405       .  S
C1753      C1754   1.402       .  A
C1753      C1758   1.412       .  A
C1754      C1755   1.396       .  A
C1754      H1763   1.083       .  S
C1755      C1756   1.412       .  A
C1755      S1759   1.803       .  S
C1756      C1757   1.405       .  A
C1757      C1758   1.400       .  A
C1757      H1764   1.083       .  S
C1758      S1760   1.803       .  S
S1759      H1762   1.407       .  S
S1760      H1761   1.407       .  S
C1765      C1766   1.403       .  A
C1765      C1770   1.414       .  A
C1766      C1767   1.400   1_455  A
C1766      H1775   1.084       .  S
C1767      C1768   1.416       .  A
C1767      S1771   1.803       .  S
C1768      C1769   1.403       .  A
C1769      C1770   1.398   1_655  A
C1769      H1776   1.084       .  S
C1770      S1772   1.804       .  S
S1771      H1774   1.407       .  S
S1772      H1773   1.408       .  S
C1777      C1778   1.403       .  A
C1777      C1782   1.412       .  A
C1778      C1779   1.401       .  A
C1778      H1787   1.084       .  S
C1779      C1780   1.415       .  A
C1779      S1783   1.803       .  S
C1780      C1781   1.404       .  A
C1781      C1782   1.397       .  A
C1781      H1788   1.083       .  S
C1782      S1784   1.805       .  S
S1783      H1786   1.407       .  S
S1784      H1785   1.402       .  S
C1789      C1790   1.404       .  A
C1789      C1794   1.412       .  A
C1790      C1791   1.402       .  A
C1790      H1799   1.084       .  S
C1791      C1792   1.416       .  A
C1791      S1795   1.803       .  S
C1792      C1793   1.403       .  A
C1793      C1794   1.397       .  A
C1793      H1800   1.084       .  S
C1794      S1796   1.801       .  S
S1795      H1798   1.407       .  S
S1796      H1797   1.405       .  S
C1801      C1802   1.405       .  A
C1801      C1806   1.416       .  A
C1802      C1803   1.399   1_655  A
C1802      H1811   1.083       .  S
C1803      C1804   1.416       .  A
C1803      S1807   1.803       .  S
C1804      C1805   1.404       .  A
C1805      C1806   1.399   1_455  A
C1805      H1812   1.084       .  S
C1806      S1808   1.802       .  S
S1807      H1810   1.407       .  S
S1808      H1809   1.404       .  S
C1813      C1814   1.405       .  A
C1813      C1818   1.416       .  A
C1814      C1815   1.401   1_545  A
C1814      H1823   1.084       .  S
C1815      C1816   1.415       .  A
C1815      S1819   1.803       .  S
C1816      C1817   1.404       .  A
C1817      C1818   1.399   1_565  A
C1817      H1824   1.084       .  S
C1818      S1820   1.804       .  S
S1819      H1822   1.407       .  S
S1820      H1821   1.405       .  S
