geometry optimzed in LAMMPS
_audit_creation_date              2020-12-01 
_audit_creation_method            'lammps2cif' 
_symmetry_space_group_name_H-M    'P1' 
_symmetry_Int_Tables_number       1 
_symmetry_cell_setting            triclinic 
loop_ 
_symmetry_equiv_pos_as_xyz 
  x,y,z 
_cell_length_a                    49.15682529 
_cell_length_b                    49.203939202932084 
_cell_length_c                    48.82322060229979 
_cell_angle_alpha                 89.99933588996721 
_cell_angle_beta                  90.11670375565333 
_cell_angle_gamma                 90.01406689760354 
loop_ 
_atom_site_label 
_atom_site_type_symbol 
_atom_site_fract_x 
_atom_site_fract_y 
_atom_site_fract_z 
_atom_site_charge 
O1          O  0.81357457  0.81209036  0.54701550    -0.82200
C2          C  0.71216341  0.82347170  0.59946228     0.97200
O3          O  0.73519526  0.82465726  0.61121934    -0.71300
O4          O  0.76945115  0.78553835  0.60249407    -0.74900
Al5        Al  0.77207337  0.82316605  0.59800568     1.49000
C6          C  0.77698146  0.76616123  0.58770619     0.92400
O7          O  0.74382812  0.78493610  0.52737744    -0.81100
O8          O  0.75986086  0.86403202  0.52755113    -0.74700
Al9        Al  0.77771105  0.80047852  0.53878749     1.90100
O10         O  0.72218483  0.82328626  0.52197186    -0.73800
O11         O  0.74077528  0.87383506  0.57827506    -0.73600
O12         O  0.70955657  0.82845479  0.57420321    -0.79300
O13         O  0.77703041  0.86139725  0.60038624    -0.77500
O14         O  0.76207011  0.82295157  0.56291439    -1.13600
O15         O  0.81022393  0.82083820  0.59096974    -0.72800
C16         C  0.82450834  0.81710690  0.56983262     0.97900
C17         C  0.72437546  0.79821325  0.51724189     0.94300
Al18       Al  0.73562871  0.84545664  0.55150410     1.55600
O19         O  0.78169098  0.76982700  0.56265886    -0.77400
C20         C  0.75889326  0.87874866  0.59585303     0.98500
C21         C  0.77332251  0.85227733  0.50888369     0.93400
O22         O  0.77779990  0.82689802  0.50976475    -0.82700
O23         O  0.82607556  0.97759416  0.29146812    -0.82200
C24         C  0.81908221  0.89632001  0.20864229     0.97200
O25         O  0.83437876  0.91703993  0.20817479    -0.71300
O26         O  0.81222984  0.96519099  0.21519009    -0.74900
Al27       Al  0.84035256  0.94661943  0.23368072     1.49000
C28         C  0.79503823  0.98121406  0.22523398     0.92400
O29         O  0.76432855  0.93610338  0.27001957    -0.81100
O30         O  0.82868753  0.90204566  0.30335824    -0.74700
Al31       Al  0.79692069  0.95529579  0.27942233     1.90100
O32         O  0.78044777  0.89515044  0.27613445    -0.73800
O33         O  0.85496138  0.89085057  0.25819927    -0.73600
O34         O  0.80747937  0.88899500  0.23040078    -0.79300
O35         O  0.87246990  0.93030894  0.24793624    -0.77500
O36         O  0.81846251  0.93330817  0.25977453    -1.13600
O37         O  0.85033467  0.97867344  0.25372945    -0.72800
C38         C  0.84443140  0.98822422  0.27700147     0.97900
C39         C  0.76049741  0.91105463  0.27395629     0.94300
Al40       Al  0.81799483  0.89759311  0.26643065     1.55600
O41         O  0.78873557  0.97999283  0.25022122    -0.77400
C42         C  0.87525506  0.90541042  0.25292809     0.98500
C43         C  0.81571559  0.91589767  0.32063143     0.93400
O44         O  0.80074620  0.93545851  0.31316925    -0.82700
O45         O  0.01858447  0.79780100  0.66276923    -0.82200
C46         C  0.10207929  0.71858703  0.67512688     0.97200
O47         O  0.08306757  0.71769780  0.65762935    -0.71300
O48         O  0.03331682  0.72218219  0.67600301    -0.74900
Al49       Al  0.05326164  0.74208907  0.64951009     1.49000
C50         C  0.01577419  0.73071668  0.69261060     0.92400
O51         O  0.05578354  0.77555792  0.72719880    -0.81100
O52         O  0.09393346  0.81329670  0.66736983    -0.74700
Al53       Al  0.03903503  0.78579039  0.69351298     1.90100
O54         O  0.09763333  0.78418784  0.71493751    -0.73800
O55         O  0.10931662  0.76904950  0.64015494    -0.73600
O56         O  0.10792434  0.74036887  0.68726761    -0.79300
O57         O  0.07210986  0.75755868  0.61877010    -0.77500
O58         O  0.06359316  0.76803022  0.67310825    -1.13600
O59         O  0.02100501  0.76096312  0.63730280    -0.72800
C60         C  0.00986076  0.78340537  0.64324001     0.97900
C61         C  0.08032398  0.77963796  0.73331453     0.94300
Al62       Al  0.09888009  0.77606368  0.67695307     1.55600
O63         O  0.01497454  0.75555180  0.69892053    -0.77400
C64         C  0.09717615  0.76312958  0.61826917     0.98500
C65         C  0.07846029  0.82944625  0.68007635     0.93400
O66         O  0.05787232  0.82047354  0.69281474    -0.82700
O67         O  0.20036232  0.18200220  0.47119938    -0.82200
C68         C  0.27764991  0.19237854  0.38695403     0.97200
O69         O  0.27993777  0.17561818  0.40673449    -0.71300
O70         O  0.27528833  0.19402514  0.45715657    -0.74900
Al71       Al  0.25603812  0.16693191  0.43745420     1.49000
C72         C  0.26691856  0.21204929  0.47322999     0.92400
O73         O  0.21983754  0.24322555  0.42873710    -0.81100
O74         O  0.18527463  0.17624293  0.39787717    -0.74700
Al75       Al  0.21138652  0.21081054  0.44872522     1.90100
O76         O  0.20788308  0.22640229  0.38922791    -0.73800
O77         O  0.23171192  0.15358895  0.38094868    -0.73600
O78         O  0.25508937  0.20330429  0.38136895    -0.79300
O79         O  0.24237823  0.13486517  0.41973438    -0.77500
O80         O  0.22958354  0.18904638  0.42590550    -1.13600
O81         O  0.23620210  0.15517351  0.46979722    -0.72800
C82         C  0.21345509  0.16192567  0.48014347     0.97900
C83         C  0.21168144  0.24670999  0.40447445     0.94300
Al84       Al  0.22077071  0.18972065  0.39062974     1.55600
O85         O  0.24213895  0.21917287  0.47276661    -0.77400
C86         C  0.23831003  0.13282903  0.39437001     0.98500
C87         C  0.16813667  0.19004711  0.41122409     0.93400
O88         O  0.17641433  0.20647163  0.42967117    -0.82700
O89         O  0.17598259  0.06025676  0.67218422    -0.82200
C90         C  0.17390126  0.11307093  0.77596516     0.97200
O91         O  0.16952260  0.12404997  0.75287137    -0.71300
O92         O  0.20791923  0.11536366  0.71633827    -0.74900
Al93       Al  0.16978149  0.11044256  0.71569383     1.49000
C94         C  0.22609232  0.10091755  0.70554005     0.92400
O95         O  0.21148752  0.04023135  0.73851604    -0.81100
O96         O  0.13121250  0.03905745  0.73281244    -0.74700
Al97       Al  0.19183807  0.05191374  0.70677820     1.90100
O98         O  0.17652467  0.03585917  0.76568350    -0.73800
O99         O  0.12270073  0.09041207  0.75149087    -0.73600
O100        O  0.17166713  0.08763024  0.77850994    -0.79300
O101        O  0.13108699  0.11121747  0.71313834    -0.77500
O102        O  0.17128300  0.07553355  0.72536767    -1.13600
O103        O  0.17028223  0.10416170  0.67704030    -0.72800
C104        C  0.17195047  0.08342647  0.66194344     0.97900
C105        C  0.20094309  0.03066080  0.75990823     0.94300
Al106      Al  0.15213967  0.06419843  0.75440731     1.55600
O107        O  0.22157545  0.07632955  0.69979754    -0.77400
C108        C  0.11567964  0.10730818  0.73329896     0.98500
C109        C  0.14143178  0.02072194  0.71769817     0.93400
O110        O  0.16584263  0.02262767  0.70948381    -0.82700
O111        O  0.94250536  0.18414988  0.30093826    -0.82200
C112        C  0.88947233  0.28667614  0.30134003     0.97200
O113        O  0.87815996  0.26368496  0.30374944    -0.71300
O114        O  0.88823098  0.22657997  0.26708482    -0.74900
Al115      Al  0.89163422  0.22708025  0.30548600     1.49000
C116        C  0.90343452  0.21657148  0.24909864     0.92400
O117        O  0.96284007  0.25034619  0.26601544    -0.81100
O118        O  0.96230449  0.24373531  0.34675853    -0.74700
Al119      Al  0.95114253  0.21849056  0.28524692     1.90100
O120        O  0.96636214  0.27690267  0.30155638    -0.73800
O121        O  0.91096579  0.26236912  0.35416387    -0.73600
O122        O  0.91456349  0.28959021  0.30602292    -0.79300
O123        O  0.88842859  0.22567318  0.34437689    -0.77500
O124        O  0.92669394  0.23673685  0.30539223    -1.13600
O125        O  0.89842674  0.18898898  0.30653350    -0.72800
C126        C  0.91929958  0.17411735  0.30536472     0.97900
C127        C  0.97162301  0.27189617  0.27680309     0.94300
Al128      Al  0.93761725  0.26534177  0.32540036     1.55600
O129        O  0.92795859  0.21133718  0.25437148    -0.77400
C130        C  0.89297503  0.24519636  0.36036002     0.98500
C131        C  0.98098700  0.22901285  0.33677211     0.93400
O132        O  0.97989236  0.22112474  0.31208457    -0.82700
O133        O  0.70087463  0.32805198  0.52005809    -0.82200
C134        C  0.78207783  0.32497808  0.60336647     0.97200
O135        O  0.78249222  0.34004765  0.58231812    -0.71300
O136        O  0.77767621  0.31911517  0.53296426    -0.74900
Al137      Al  0.75726175  0.34557929  0.55229611     1.49000
C138        C  0.76926771  0.30160631  0.51625463     0.92400
O139        O  0.72726651  0.26749899  0.56053971    -0.81100
O140        O  0.68726063  0.32831974  0.59500626    -0.74700
Al141      Al  0.71514394  0.29931759  0.54180418     1.90100
O142        O  0.71793664  0.28230198  0.60181774    -0.73800
O143        O  0.73043889  0.35773355  0.60845624    -0.73600
O144        O  0.76087557  0.31233214  0.61020062    -0.79300
O145        O  0.74167989  0.37666710  0.56971512    -0.77500
O146        O  0.73249706  0.32192873  0.56476796    -1.13600
O147        O  0.73651687  0.35519549  0.52000232    -0.72800
C148        C  0.71380989  0.34786262  0.51003468     0.97900
C149        C  0.72235579  0.26299711  0.58547337     0.94300
Al150      Al  0.72480565  0.32040380  0.60052545     1.55600
O151        O  0.74476950  0.29404237  0.51662206    -0.77400
C152        C  0.73611135  0.37858774  0.59479699     0.98500
C153        C  0.67172295  0.31293926  0.58143674     0.93400
O154        O  0.68127430  0.29915276  0.56179658    -0.82700
O155        O  0.68285176  0.44594422  0.31294270    -0.82200
C156        C  0.68061105  0.39627825  0.20836665     0.97200
O157        O  0.67645578  0.38428844  0.23105649    -0.71300
O158        O  0.71294261  0.39296783  0.26841653    -0.74900
Al159      Al  0.67513909  0.39682949  0.26859681     1.49000
C160        C  0.73168599  0.40830546  0.27646645     0.92400
O161        O  0.71379798  0.47023561  0.24586316    -0.81100
O162        O  0.63402716  0.46649313  0.25303728    -0.74700
Al163      Al  0.69610982  0.45602746  0.27771858     1.90100
O164        O  0.67808073  0.47349629  0.21970540    -0.73800
O165        O  0.62767239  0.41537529  0.23241086    -0.73600
O166        O  0.67659965  0.42153957  0.20608168    -0.79300
O167        O  0.63640115  0.39462854  0.27073499    -0.77500
O168        O  0.67576660  0.43199562  0.25931930    -1.13600
O169        O  0.67511853  0.40245532  0.30745830    -0.72800
C170        C  0.67819673  0.42278763  0.32292026     0.97900
C171        C  0.70215941  0.48023179  0.22525498     0.94300
Al172      Al  0.65584086  0.44317432  0.23058157     1.55600
O173        O  0.72727961  0.43297689  0.28184661    -0.77400
C174        C  0.62094758  0.39837786  0.25056376     0.98500
C175        C  0.64375834  0.48471885  0.26868454     0.93400
O176        O  0.66825853  0.48351224  0.27697882    -0.82700
O177        O  0.31871941  0.52635066  0.69885581    -0.82200
C178        C  0.30991649  0.61300239  0.77590299     0.97200
O179        O  0.32519620  0.59241133  0.77804930    -0.71300
O180        O  0.30566955  0.54313936  0.77480409    -0.74900
Al181      Al  0.33263483  0.56173620  0.75452722     1.49000
C182        C  0.28884253  0.52577995  0.76659510     0.92400
O183        O  0.25558828  0.56532966  0.72022288    -0.81100
O184        O  0.31631776  0.60001899  0.68099891    -0.74700
Al185      Al  0.28863801  0.54743687  0.71058448     1.90100
O186        O  0.26926781  0.60669145  0.71085429    -0.73800
O187        O  0.34495104  0.61612397  0.72413806    -0.73600
O188        O  0.29835478  0.61861434  0.75361178    -0.79300
O189        O  0.36402483  0.57905024  0.73947226    -0.77500
O190        O  0.30975856  0.57204066  0.72781058    -1.13600
O191        O  0.34417122  0.52900911  0.73592837    -0.72800
C192        C  0.33837230  0.51794378  0.71318123     0.97900
C193        C  0.25036471  0.58992883  0.71532251     0.94300
Al194      Al  0.30750568  0.60705177  0.71815767     1.55600
O195        O  0.28276679  0.52411711  0.74157490    -0.77400
C196        C  0.36583550  0.60343690  0.73188990     0.98500
C197        C  0.30299432  0.58441014  0.66551927     0.93400
O198        O  0.28939535  0.56491160  0.67527174    -0.82700
O199        O  0.44593867  0.32539708  0.68697256    -0.82200
C200        C  0.38575521  0.22535823  0.68246885     0.97200
O201        O  0.37693290  0.24926956  0.67918323    -0.71300
O202        O  0.38982470  0.28271650  0.71835705    -0.74900
Al203      Al  0.39371764  0.28464262  0.68036164     1.49000
C204        C  0.40553173  0.29031838  0.73717073     0.92400
O205        O  0.46600517  0.25790922  0.72005708    -0.81100
O206        O  0.46355986  0.26151170  0.64110112    -0.74700
Al207      Al  0.45340926  0.28991647  0.70154335     1.90100
O208        O  0.46389968  0.22916645  0.68609526    -0.73800
O209        O  0.41086944  0.24864949  0.63259774    -0.73600
O210        O  0.41096455  0.22052932  0.68097375    -0.79300
O211        O  0.39302628  0.28812955  0.64151600    -0.77500
O212        O  0.42805656  0.27260480  0.68137410    -1.13600
O213        O  0.40195527  0.32248918  0.68181117    -0.72800
C214        C  0.42324129  0.33664271  0.68307246     0.97900
C215        C  0.47275144  0.23561922  0.70936598     0.94300
Al216      Al  0.43662401  0.24282692  0.66195446     1.55600
O217        O  0.43017848  0.29601960  0.73261490    -0.77400
C218        C  0.39554265  0.26810278  0.62568718     0.98500
C219        C  0.48244492  0.27631652  0.65057631     0.93400
O220        O  0.48101170  0.28669312  0.67424909    -0.82700
O221        O  0.52508734  0.70547719  0.32019759    -0.82200
C222        C  0.60650675  0.78664189  0.31419635     0.97200
O223        O  0.58623181  0.78704905  0.33021826    -0.71300
O224        O  0.53850106  0.78276800  0.30567120    -0.74900
Al225      Al  0.55521398  0.76269390  0.33423564     1.49000
C226        C  0.52050323  0.77374321  0.28969746     0.92400
O227        O  0.56205932  0.73066112  0.25759075    -0.81100
O228        O  0.59759180  0.69232939  0.31938813    -0.74700
Al229      Al  0.54463999  0.71907551  0.29005057     1.90100
O230        O  0.60362328  0.72200164  0.27183954    -0.73800
O231        O  0.61021186  0.73649495  0.34842034    -0.73600
O232        O  0.61230167  0.76549786  0.30094425    -0.79300
O233        O  0.57063236  0.74607455  0.36616084    -0.77500
O234        O  0.56761563  0.73722158  0.31158382    -1.13600
O235        O  0.52134450  0.74381706  0.34250596    -0.72800
C236        C  0.51271776  0.72003748  0.33728592     0.97900
C237        C  0.58682797  0.72637617  0.25269818     0.94300
Al238      Al  0.60288199  0.72965664  0.31032236     1.55600
O239        O  0.51913460  0.74857674  0.28464868    -0.77400
C240        C  0.59567879  0.74121654  0.36919778     0.98500
C241        C  0.58361982  0.67620713  0.30497277     0.93400
O242        O  0.56443268  0.68519249  0.29025312    -0.82700
O243        O  0.31857592  0.69803348  0.42515045    -0.82200
C244        C  0.21328408  0.69438171  0.38651200     0.97200
O245        O  0.23594046  0.70502552  0.38151991    -0.71300
O246        O  0.28443790  0.72500757  0.38818372    -0.74900
Al247      Al  0.27001127  0.68876350  0.38747740     1.49000
C248        C  0.28411406  0.74367010  0.40590586     0.92400
O249        O  0.25744423  0.71239685  0.47301126    -0.81100
O250        O  0.25354559  0.65439404  0.46801806    -0.74700
Al251      Al  0.28573535  0.70336323  0.44649378     1.90100
O252        O  0.22030279  0.69695486  0.45364836    -0.73800
O253        O  0.24736210  0.63426911  0.41759214    -0.73600
O254        O  0.21171689  0.67603668  0.40465936    -0.79300
O255        O  0.25684330  0.65289914  0.37801365    -0.77500
O256        O  0.26389449  0.68630677  0.42307661    -1.13600
O257        O  0.30514789  0.67327956  0.39016352    -0.72800
C258        C  0.32395833  0.68378339  0.40418656     0.97900
C259        C  0.23167330  0.71114185  0.47183781     0.94300
Al260      Al  0.23567425  0.66702100  0.43505212     1.55600
O261        O  0.27948495  0.73833338  0.43071209    -0.77400
C262        C  0.25095253  0.63213221  0.39208903     0.98500
C263        C  0.27804534  0.65502644  0.47606186     0.93400
O264        O  0.29471723  0.67065388  0.46452218    -0.82700
O265        O  0.80225689  0.55670220  0.81497434    -0.82200
C266        C  0.80549319  0.60998525  0.71231467     0.97200
O267        O  0.80741702  0.62129773  0.73555086    -0.71300
O268        O  0.77125229  0.61111981  0.77246035    -0.74900
Al269      Al  0.80906722  0.60772674  0.77245839     1.49000
C270        C  0.75282433  0.59550989  0.78050445     0.92400
O271        O  0.77084590  0.53625693  0.74690138    -0.81100
O272        O  0.85055286  0.53772847  0.75653688    -0.74700
Al273      Al  0.78842136  0.54817967  0.77965315     1.90100
O274        O  0.80722056  0.53323409  0.72160218    -0.73800
O275        O  0.85793234  0.58894568  0.73753240    -0.73600
O276        O  0.81082650  0.58504897  0.70925738    -0.79300
O277        O  0.84758975  0.61129926  0.77439708    -0.77500
O278        O  0.80910285  0.57280690  0.76231108    -1.13600
O279        O  0.80977353  0.60045158  0.81088208    -0.72800
C280        C  0.80750133  0.57945860  0.82559444     0.97900
C281        C  0.78271192  0.52741514  0.72591914     0.94300
Al282      Al  0.82983132  0.56217883  0.73402966     1.55600
O283        O  0.75750276  0.57085578  0.78521360    -0.77400
C284        C  0.86357267  0.60700777  0.75483865     0.98500
C285        C  0.84010503  0.51907271  0.77109362     0.93400
O286        O  0.81533144  0.52003740  0.77808610    -0.82700
O287        O  0.96050186  0.29893230  0.83132863    -0.82200
C288        C  0.87967316  0.21858768  0.81699177     0.97200
O289        O  0.89894646  0.21767029  0.83420284    -0.71300
O290        O  0.94785202  0.22278904  0.81399987    -0.74900
Al291      Al  0.92909687  0.24184428  0.84170466     1.49000
C292        C  0.96567019  0.23209719  0.79816246     0.92400
O293        O  0.92573222  0.27782664  0.76541390    -0.81100
O294        O  0.88709262  0.31280963  0.82684850    -0.74700
Al295      Al  0.94186722  0.28713489  0.79958610     1.90100
O296        O  0.88352209  0.28512433  0.77793354    -0.73800
O297        O  0.87313555  0.26790155  0.85304536    -0.73600
O298        O  0.87372720  0.24038331  0.80487960    -0.79300
O299        O  0.91142721  0.25680539  0.87308285    -0.77500
O300        O  0.91782244  0.26820234  0.81911347    -1.13600
O301        O  0.96211225  0.26039462  0.85333259    -0.72800
C302        C  0.97136809  0.28409723  0.84926913     0.93100
C303        C  0.90117845  0.28222548  0.75941594     0.94300
Al304      Al  0.88251689  0.27589805  0.81602722     1.55600
O305        O  0.96704194  0.25735830  0.79351283    -0.77400
C306        C  0.88635601  0.26209905  0.87438476     0.98500
C307        C  0.90195223  0.32956119  0.81428826     0.93400
O308        O  0.92234142  0.32124655  0.80088905    -0.82700
O309        O  0.78979041  0.67904295  0.01650369    -0.82200
C310        C  0.71238503  0.68867432  0.10183922     0.97200
O311        O  0.71123979  0.67196968  0.08216075    -0.71300
O312        O  0.71528795  0.68839208  0.03130125    -0.74900
Al313      Al  0.73569216  0.66343719  0.05262659     1.49000
C314        C  0.72273100  0.70642054  0.01471022     0.92400
O315        O  0.76884252  0.74246313  0.05565979    -0.81100
O316        O  0.80680693  0.68225358  0.09251492    -0.74700
Al317      Al  0.77809839  0.70888985  0.03800370     1.90100
O318        O  0.77740463  0.72922326  0.09742432    -0.73800
O319        O  0.76318984  0.65447970  0.10937813    -0.73600
O320        O  0.73407257  0.70092870  0.10782769    -0.79300
O321        O  0.75085846  0.63323568  0.07237488    -0.77500
O322        O  0.76111058  0.68774229  0.06281854    -1.13600
O323        O  0.75535086  0.65084656  0.02117284    -0.72800
C324        C  0.77702896  0.65800634  0.00928941     0.97900
C325        C  0.77374367  0.74802052  0.08036169     0.94300
Al326      Al  0.76967571  0.69129095  0.09831336     1.55600
O327        O  0.74700909  0.71472557  0.01475541    -0.77400
C328        C  0.75645843  0.63278246  0.09756441     0.98500
C329        C  0.82250223  0.69486368  0.07645967     0.93400
O330        O  0.81317269  0.70764621  0.05597360    -0.82700
O331        O  0.16599484  0.48799957  0.20945102    -0.82200
C332        C  0.18001163  0.39851097  0.27520130     0.97200
O333        O  0.17495924  0.42349068  0.27818930    -0.71300
O334        O  0.17549660  0.47535004  0.26638583    -0.74900
Al335      Al  0.15409917  0.44541990  0.25396987     1.49000
C336        C  0.19973076  0.48220282  0.26201198     0.92400
O337        O  0.22584575  0.43951084  0.20216311    -0.81100
O338        O  0.17650173  0.40775034  0.17714213    -0.74700
Al339      Al  0.19420229  0.46120520  0.20786067     1.90100
O340        O  0.21397210  0.39912693  0.21682567    -0.73800
O341        O  0.13763390  0.39720978  0.21212499    -0.73600
O342        O  0.17662822  0.38728728  0.25211719    -0.79300
O343        O  0.12697850  0.41728215  0.25037522    -0.77500
O344        O  0.17479867  0.43586283  0.22543709    -1.13600
O345        O  0.13195345  0.46883814  0.23170826    -0.72800
C346        C  0.14119419  0.48759601  0.21645913     0.97900
C347        C  0.23160483  0.41528600  0.20798705     0.94300
Al348      Al  0.17600756  0.40100931  0.21538722     1.55600
O349        O  0.21165442  0.47424501  0.24063384    -0.77400
C350        C  0.12143475  0.40049057  0.23170450     0.98500
C351        C  0.17708857  0.42861101  0.16220420     0.93400
O352        O  0.18036833  0.45183284  0.17261161    -0.82700
O353        O  0.06101321  0.68387926  0.19350645    -0.82200
C354        C  0.10403390  0.78707760  0.18523712     0.97200
O355        O  0.10944513  0.76443068  0.19550695    -0.71300
O356        O  0.10022824  0.71692424  0.21852141    -0.74900
Al357      Al  0.10122102  0.72956395  0.18130265     1.49000
C358        C  0.08291901  0.71995192  0.23733373     0.92400
O359        O  0.01786105  0.74797972  0.20554948    -0.81100
O360        O  0.02200087  0.74767862  0.14500382    -0.74700
Al361      Al  0.04199536  0.71814650  0.19741759     1.90100
O362        O  0.03699154  0.78301518  0.18603274    -0.73800
O363        O  0.07293699  0.75166276  0.12520439    -0.73600
O364        O  0.08580146  0.78852071  0.16657609    -0.79300
O365        O  0.11123908  0.74067849  0.14503517    -0.77500
O366        O  0.06607607  0.73760338  0.17856843    -1.13600
O367        O  0.09612740  0.69359752  0.16753052    -0.72800
C368        C  0.08088260  0.67621716  0.17887744     0.97900
C369        C  0.01963939  0.77339449  0.20216181     0.94300
Al370      Al  0.05533039  0.76520134  0.15743555     1.55600
O371        O  0.05862987  0.72567777  0.23169881    -0.77400
C372        C  0.09824422  0.74751222  0.12382582     0.98500
C373        C  0.01196692  0.72412790  0.14834676     0.93400
O374        O  0.02240200  0.70831943  0.16564362    -0.82700
O375        O  0.16879106  0.30532637  0.93285894    -0.82200
C376        C  0.26856668  0.31239606  0.88273510     0.97200
O377        O  0.24585477  0.30099762  0.87962117    -0.71300
O378        O  0.19901819  0.27951126  0.89205075    -0.74900
Al379      Al  0.21212077  0.31615848  0.88956143     1.49000
C380        C  0.20275858  0.26101069  0.90952470     0.92400
O381        O  0.23565002  0.29316626  0.97263847    -0.81100
O382        O  0.23589063  0.35286312  0.96708962    -0.74700
Al383      Al  0.20412613  0.30109135  0.95016184     1.90100
O384        O  0.26951669  0.31132610  0.95018636    -0.73800
O385        O  0.23511948  0.37177572  0.91610851    -0.73600
O386        O  0.27153154  0.33108667  0.90038318    -0.79300
O387        O  0.22330546  0.35225275  0.87809377    -0.77500
O388        O  0.22220898  0.31918966  0.92433590    -1.13600
O389        O  0.17692312  0.33046196  0.89643454    -0.72800
C390        C  0.16036218  0.31934631  0.91272060     0.97900
C391        C  0.26098618  0.29628735  0.96916013     0.94300
Al392      Al  0.25054617  0.34005565  0.93277336     1.55600
O393        O  0.20999467  0.26672968  0.93353790    -0.77400
C394        C  0.22940126  0.37370426  0.89100047     0.98500
C395        C  0.21301290  0.34998813  0.97856070     0.93400
O396        O  0.19607697  0.33276169  0.97011771    -0.82700
O397        O  0.54391040  0.82252677  0.79816380    -0.82200
C398        C  0.59816366  0.72122858  0.80605664     0.97200
O399        O  0.60893094  0.74456829  0.80729701    -0.71300
O400        O  0.59946936  0.78034734  0.76969059    -0.74900
Al401      Al  0.59506268  0.78095127  0.80769123     1.49000
C402        C  0.58428388  0.78789600  0.75054291     0.92400
O403        O  0.52430850  0.75408849  0.76789050    -0.81100
O404        O  0.52438379  0.76555801  0.84804683    -0.74700
Al405      Al  0.53589458  0.78695866  0.78511994     1.90100
O406        O  0.52065545  0.72947990  0.80483094    -0.73800
O407        O  0.57585434  0.74700526  0.85733487    -0.73600
O408        O  0.57304195  0.71781282  0.81052293    -0.79300
O409        O  0.59792850  0.78364172  0.84647874    -0.77500
O410        O  0.56023922  0.77041755  0.80698545    -1.13600
O411        O  0.58741138  0.81898211  0.80743959    -0.72800
C412        C  0.56644436  0.83338196  0.80386120     0.97900
C413        C  0.51500188  0.73352273  0.77995430     0.94300
Al414      Al  0.54937118  0.74271567  0.82831009     1.55600
O415        O  0.55933910  0.79195916  0.75438889    -0.77400
C416        C  0.59398928  0.76429903  0.86276661     0.98500
C417        C  0.50580806  0.77974700  0.83692472     0.93400
O418        O  0.50712944  0.78578853  0.81171780    -0.82700
O419        O  0.28473526  0.83494176  0.96562092    -0.82200
C420        C  0.20447037  0.82591921  0.88204868     0.97200
O421        O  0.20509004  0.84406927  0.90031171    -0.71300
O422        O  0.20920029  0.82171966  0.94806285    -0.74900
Al423      Al  0.22945306  0.84924090  0.93084842     1.49000
C424        C  0.21671050  0.80453582  0.96547042     0.92400
O425        O  0.26387743  0.77170513  0.92537819    -0.81100
O426        O  0.29894453  0.83249574  0.88759285    -0.74700
Al427      Al  0.27295887  0.80510303  0.94345927     1.90100
O428        O  0.27021930  0.78555775  0.88336329    -0.73800
O429        O  0.25451525  0.86047172  0.87477057    -0.73600
O430        O  0.22553440  0.81281286  0.87584911    -0.79300
O431        O  0.24622458  0.88009022  0.91410621    -0.77500
O432        O  0.25497234  0.82599729  0.91946099    -1.13600
O433        O  0.24741701  0.85926755  0.96455178    -0.72800
C434        C  0.27000603  0.85351014  0.97550142     0.97900
C435        C  0.26777643  0.76657875  0.90039885     0.94300
Al436      Al  0.26169101  0.82319003  0.88364430     1.55600
O437        O  0.24176751  0.79854012  0.96728722    -0.77400
C438        C  0.25070987  0.88173033  0.88870620     0.98500
C439        C  0.31568638  0.82004562  0.90272874     0.93400
O440        O  0.30758686  0.80749773  0.92401391    -0.82700
O441        O  0.66599638  0.02487524  0.78685976    -0.82200
C442        C  0.67595383  0.11349791  0.71269921     0.97200
O443        O  0.65876773  0.09438493  0.71076073    -0.71300
O444        O  0.67955690  0.04535268  0.71158935    -0.74900
Al445      Al  0.65238917  0.06228606  0.73295025     1.49000
C446        C  0.69676140  0.02797338  0.71911981     0.92400
O447        O  0.72931033  0.06464540  0.76761225    -0.81100
O448        O  0.66783638  0.09847680  0.80629283    -0.74700
Al449      Al  0.69621220  0.04658530  0.77626706     1.90100
O450        O  0.71590057  0.10560558  0.77867951    -0.73800
O451        O  0.64088706  0.11596951  0.76288576    -0.73600
O452        O  0.68853847  0.11778302  0.73473881    -0.79300
O453        O  0.62150914  0.07806747  0.75058622    -0.77500
O454        O  0.67549187  0.07158368  0.75962714    -1.13600
O455        O  0.64164496  0.02827750  0.74920827    -0.72800
C456        C  0.64701897  0.01651354  0.77160285     0.97900
C457        C  0.73466211  0.08894864  0.77350544     0.94300
Al458      Al  0.67799892  0.10628286  0.76980162     1.55600
O459        O  0.70248067  0.02493124  0.74416233    -0.77400
C460        C  0.61965528  0.10270986  0.75731039     0.98500
C461        C  0.68116451  0.08301802  0.82192635     0.93400
O462        O  0.69474714  0.06338956  0.81215651    -0.82700
O463        O  0.47263772  0.22115854  0.16662884    -0.82200
C464        C  0.38195827  0.28614586  0.17979127     0.97200
O465        O  0.40709215  0.28925774  0.17557304    -0.71300
O466        O  0.45940858  0.27713878  0.17733977    -0.74900
Al467      Al  0.42943413  0.26483362  0.15508977     1.49000
C468        C  0.46736128  0.27161571  0.20134788     0.92400
O469        O  0.42460263  0.21172562  0.22667858    -0.81100
O470        O  0.39190986  0.18924339  0.18309247    -0.74700
Al471      Al  0.44588274  0.21844110  0.19447147     1.90100
O472        O  0.38613562  0.23235993  0.21759304    -0.73800
O473        O  0.38066266  0.22175569  0.14109761    -0.73600
O474        O  0.37132694  0.26307069  0.17693077    -0.79300
O475        O  0.40109474  0.25921279  0.12801877    -0.77500
O476        O  0.42039120  0.23675376  0.17616771    -1.13600
O477        O  0.45308470  0.24337787  0.13275628    -0.72800
C478        C  0.47228636  0.22893476  0.14203098     0.97900
C479        C  0.40224588  0.22161479  0.23444246     0.94300
Al480      Al  0.38562120  0.22730038  0.17940378     1.55600
O481        O  0.45929311  0.25010750  0.21284591    -0.77400
C482        C  0.38404114  0.24038864  0.12363919     0.98500
C483        C  0.41229778  0.17418767  0.17935317     0.93400
O484        O  0.43570702  0.18459278  0.17830022    -0.82700
O485        O  0.66749501  0.18361486  0.05222800    -0.82200
C486        C  0.77290339  0.18831821  0.09934496     0.97200
O487        O  0.75070049  0.18660207  0.11231156    -0.71300
O488        O  0.71562203  0.22448264  0.10026803    -0.74900
Al489      Al  0.71324456  0.18634714  0.10054631     1.49000
C490        C  0.70266750  0.24041345  0.08494492     0.92400
O491        O  0.73049316  0.22006822  0.02570240    -0.81100
O492        O  0.72604162  0.14011857  0.03216994    -0.74700
Al493      Al  0.70018810  0.20076636  0.04035329     1.90100
O494        O  0.75801875  0.18506569  0.02319818    -0.73800
O495        O  0.74633820  0.13679023  0.08285040    -0.73600
O496        O  0.77396639  0.18362234  0.07404204    -0.79300
O497        O  0.71007732  0.14801658  0.10577870    -0.77500
O498        O  0.72058511  0.18341157  0.06500315    -1.13600
O499        O  0.67431859  0.18751749  0.09622196    -0.72800
C500        C  0.65817401  0.18440746  0.07626624     0.97900
C501        C  0.75192006  0.20913307  0.01680165     0.94300
Al502      Al  0.74851666  0.16306811  0.05397450     1.55600
O503        O  0.69306420  0.23246365  0.06233853    -0.77400
C504        C  0.72934810  0.13167370  0.10147565     0.98500
C505        C  0.71123741  0.14876245  0.01287781     0.93400
O506        O  0.70268783  0.17301189  0.01283734    -0.82700
O507        O  0.30690729  0.95127237  0.17387329    -0.82200
C508        C  0.31662239  0.89456309  0.27549656     0.97200
O509        O  0.31900666  0.88470061  0.25165264    -0.71300
O510        O  0.27862665  0.89652370  0.21861236    -0.74900
Al511      Al  0.31648013  0.89999760  0.21531862     1.49000
C512        C  0.25987001  0.91238627  0.21147640     0.92400
O513        O  0.28091533  0.97373269  0.24389379    -0.81100
O514        O  0.35916357  0.96781301  0.23317576    -0.74700
Al515      Al  0.29618734  0.95987616  0.21048387     1.90100
O516        O  0.31734430  0.97292403  0.26925862    -0.73800
O517        O  0.36600764  0.91606170  0.24904732    -0.73600
O518        O  0.31934550  0.91986034  0.27923835    -0.79300
O519        O  0.35472652  0.89807463  0.20991373    -0.77500
O520        O  0.31688514  0.93451493  0.22668517    -1.13600
O521        O  0.31332679  0.90747053  0.17708203    -0.72800
C522        C  0.31002740  0.92843388  0.16269579     0.97900
C523        C  0.29375085  0.98171055  0.26474754     0.94300
Al524      Al  0.33850498  0.94341664  0.25497312     1.55600
O525        O  0.26439367  0.93733120  0.20722107    -0.77400
C526        C  0.37130060  0.90026486  0.22941915     0.98500
C527        C  0.34941197  0.98642786  0.21817356     0.93400
O528        O  0.32473111  0.98634107  0.21056120    -0.82700
C529        C  0.40822103  0.14412847  0.17811885     0.00900
C530        C  0.42815340  0.12595121  0.18860141     0.03800
C531        C  0.42178756  0.09827312  0.19229376    -0.12300
C532        C  0.39540194  0.08870313  0.18673254     0.23100
C533        C  0.37613086  0.10611280  0.17459064    -0.12900
C534        C  0.38274904  0.13345720  0.16946158     0.04500
C535        C  0.38735161  0.06084080  0.19514924     0.26900
C536        C  0.38370659  0.04028486  0.17537066    -0.13600
C537        C  0.37258647  0.01507873  0.18308867     0.05000
C538        C  0.36620578  0.01000591  0.21072949    -0.09500
C539        C  0.37219050  0.02963612  0.23083552     0.05800
C540        C  0.38212568  0.05525420  0.22301138    -0.13900
Br541      Br  0.34006721  0.09273615  0.16610689    -0.06000
Br542      Br  0.46372747  0.13825476  0.20006905    -0.00300
Br543      Br  0.36577575  0.98757412  0.15584845     0.00100
Br544      Br  0.38697249  0.08318316  0.25036920    -0.04300
Br545      Br  0.35663036  0.15559797  0.14983306     0.00200
Br546      Br  0.44885423  0.07325173  0.20602812    -0.03600
Br547      Br  0.39320756  0.04708080  0.13765965    -0.04500
Br548      Br  0.36521219  0.02206266  0.26899218    -0.00500
C549        C  0.49591892  0.22191792  0.12508511     0.00900
C550        C  0.51957939  0.23786307  0.12740203     0.03800
C551        C  0.54433058  0.22834301  0.11683533    -0.12300
C552        C  0.54562968  0.20272175  0.10399566     0.23100
C553        C  0.52166782  0.18730787  0.10043897    -0.12900
C554        C  0.49681914  0.19685327  0.11118886     0.04500
C555        C  0.57252067  0.19242401  0.09474683     0.26900
C556        C  0.58208130  0.19933828  0.06860555    -0.13600
C557        C  0.60971836  0.19566622  0.06189557     0.05000
C558        C  0.62804297  0.18393697  0.08121900    -0.09500
C559        C  0.61748119  0.17480672  0.10671877     0.05800
C560        C  0.58998517  0.17946382  0.11349493    -0.13900
Br561      Br  0.52311569  0.15300751  0.08147869    -0.06000
Br562      Br  0.51842006  0.27221243  0.14642287    -0.00300
Br563      Br  0.62187563  0.21006497  0.02719024     0.00100
Br564      Br  0.57630689  0.16968799  0.14925474    -0.04300
Br565      Br  0.46420763  0.17522731  0.10821331     0.00200
Br566      Br  0.57678307  0.25009314  0.12074216    -0.03600
Br567      Br  0.55723532  0.21583318  0.04276578    -0.04500
Br568      Br  0.64018263  0.15621318  0.13311952    -0.00500
C569        C  0.70507892  0.13136481  0.98891405     0.00900
C570        C  0.72646959  0.11996977  0.97335903     0.03800
C571        C  0.72090615  0.10784827  0.94782581    -0.12300
C572        C  0.69431538  0.10838625  0.93706828     0.23100
C573        C  0.67281063  0.11858858  0.95303748    -0.12900
C574        C  0.67808799  0.12938375  0.97919868     0.04500
C575        C  0.68969410  0.10162318  0.90779335     0.26900
C576        C  0.69222533  0.12228115  0.88805157    -0.13600
C577        C  0.68889397  0.11629468  0.86011064     0.05000
C578        C  0.68274961  0.08941987  0.85161679    -0.09500
C579        C  0.67982302  0.06880052  0.87157671     0.05800
C580        C  0.68339951  0.07492329  0.89959366    -0.13900
Br581      Br  0.63642103  0.11935525  0.93819833    -0.06000
Br582      Br  0.76381088  0.12355438  0.98511911    -0.00300
Br583      Br  0.69473376  0.14515261  0.83390202     0.00100
Br584      Br  0.68007610  0.04686497  0.92694448    -0.04300
Br585      Br  0.64826614  0.14140165  0.00173452     0.00200
Br586      Br  0.74988050  0.09183490  0.92662726    -0.03600
Br587      Br  0.70100007  0.15889820  0.89947075    -0.04500
Br588      Br  0.66990343  0.03238652  0.86084075    -0.00500
C589        C  0.30705533  0.92537914  0.13248746     0.00900
C590        C  0.32896096  0.91638880  0.11622567     0.03800
C591        C  0.32450185  0.90835620  0.08874021    -0.12300
C592        C  0.29804146  0.90896439  0.07739534     0.23100
C593        C  0.27647283  0.91944599  0.09319342    -0.12900
C594        C  0.28096530  0.92778433  0.12048693     0.04500
C595        C  0.29204284  0.89497540  0.05074904     0.26900
C596        C  0.29232782  0.90911071  0.02555350    -0.13600
C597        C  0.28590184  0.89542963  0.00082428     0.05000
C598        C  0.27843754  0.86772825  0.00115495    -0.09500
C599        C  0.27742620  0.85388239  0.02650422     0.05800
C600        C  0.28460950  0.86729592  0.05102748    -0.13900
Br601      Br  0.24021877  0.92035251  0.07799844    -0.06000
Br602      Br  0.36495243  0.91471309  0.13186518    -0.00300
Br603      Br  0.28743835  0.91443781  0.96633660     0.00100
Br604      Br  0.28345115  0.84801907  0.08549399    -0.04300
Br605      Br  0.25058785  0.94028777  0.14204535     0.00200
Br606      Br  0.35429386  0.89501150  0.06698371    -0.03600
Br607      Br  0.30058221  0.94737771  0.02512736    -0.04500
Br608      Br  0.26424411  0.81701560  0.02815492    -0.00500
C609        C  0.56930852  0.86350537  0.80433427     0.00900
C610        C  0.58400523  0.87613761  0.82565584     0.03800
C611        C  0.59374054  0.90293411  0.82249521    -0.12300
C612        C  0.58839671  0.91748297  0.79817738     0.23100
C613        C  0.57111554  0.90599632  0.77821756    -0.12900
C614        C  0.56140558  0.87916860  0.78131999     0.04500
C615        C  0.60331839  0.94327735  0.79217457     0.26900
C616        C  0.59139774  0.96891412  0.79713037    -0.13600
C617        C  0.60568942  0.99299283  0.79057100     0.05000
C618        C  0.63196767  0.99153656  0.77916676    -0.09500
C619        C  0.64382665  0.96592331  0.77419958     0.05800
C620        C  0.62955136  0.94194727  0.78058785    -0.13900
Br621      Br  0.56236360  0.92652148  0.74568338    -0.06000
Br622      Br  0.59023882  0.85671961  0.85940948    -0.00300
Br623      Br  0.58952050  0.02805321  0.79723876     0.00100
Br624      Br  0.64575834  0.90709459  0.77283796    -0.04300
Br625      Br  0.53896577  0.86363221  0.75284502     0.00200
Br626      Br  0.61565112  0.91929047  0.85080575    -0.03600
Br627      Br  0.55542171  0.97089627  0.81256489    -0.04500
Br628      Br  0.67944684  0.96353604  0.75783905    -0.00500
C629        C  0.48131948  0.78891362  0.85259265     0.00900
C630        C  0.47072275  0.81540249  0.84834714     0.03800
C631        C  0.44486663  0.82258902  0.85853012    -0.12300
C632        C  0.42914325  0.80348065  0.87296617     0.23100
C633        C  0.44025810  0.77767903  0.87878017    -0.12900
C634        C  0.46639626  0.77052947  0.86907879     0.04500
C635        C  0.40019521  0.80969037  0.88010255     0.26900
C636        C  0.39338962  0.82199065  0.90527959    -0.13600
C637        C  0.36582536  0.82626411  0.91236592     0.05000
C638        C  0.34482348  0.81837985  0.89428373    -0.09500
C639        C  0.35183260  0.80755531  0.86831267     0.05800
C640        C  0.37934040  0.80312420  0.86140031    -0.13900
Br641      Br  0.41876473  0.75161168  0.89882157    -0.06000
Br642      Br  0.49161770  0.84250368  0.82905298    -0.00300
Br643      Br  0.35677349  0.84436843  0.94614510     0.00100
Br644      Br  0.38871640  0.78772953  0.82622363    -0.04300
Br645      Br  0.48067868  0.73492719  0.87736674     0.00200
Br646      Br  0.43035356  0.85843502  0.85187353    -0.03600
Br647      Br  0.42199460  0.83320617  0.92981845    -0.04500
Br648      Br  0.32405909  0.79772792  0.84210583    -0.00500
C649        C  0.28090774  0.28357780  0.98846931     0.00900
C650        C  0.30269771  0.29922675  0.99924638     0.03800
C651        C  0.31973858  0.28843266  0.01976031    -0.12300
C652        C  0.31619258  0.26154568  0.02896440     0.23100
C653        C  0.29558945  0.24531012  0.01721633    -0.12900
C654        C  0.27774603  0.25635631  0.99737466     0.04500
C655        C  0.33278141  0.25159726  0.05261174     0.26900
C656        C  0.36063437  0.24541505  0.04929955    -0.13600
C657        C  0.37747656  0.24151885  0.07245245     0.05000
C658        C  0.36622827  0.24183330  0.09901474    -0.09500
C659        C  0.33798045  0.24650703  0.10215306     0.05800
C660        C  0.32152631  0.25197156  0.07913008    -0.13900
Br661      Br  0.29166675  0.20801452  0.02878645    -0.06000
Br662      Br  0.30889027  0.33625054  0.98760263    -0.00300
Br663      Br  0.41616181  0.23698499  0.06785759     0.00100
Br664      Br  0.28389879  0.26232631  0.08405081    -0.04300
Br665      Br  0.24949371  0.23369595  0.98208876     0.00200
Br666      Br  0.34714905  0.31115468  0.03667644    -0.03600
Br667      Br  0.37580567  0.24350969  0.01295754    -0.04500
Br668      Br  0.32179649  0.24818924  0.13807120    -0.00500
C669        C  0.12037685  0.81194154  0.19306387     0.00900
C670        C  0.11727758  0.83721434  0.17923000     0.03800
C671        C  0.13703606  0.85789174  0.18212877    -0.12300
C672        C  0.15919780  0.85424591  0.19996150     0.23100
C673        C  0.16042440  0.83106224  0.21660952    -0.12900
C674        C  0.14133015  0.80994652  0.21343684     0.04500
C675        C  0.18285639  0.87307170  0.19950739     0.26900
C676        C  0.20505577  0.86670726  0.18252792    -0.13600
C677        C  0.23007653  0.87994460  0.18623733     0.05000
C678        C  0.23273553  0.90062197  0.20617834    -0.09500
C679        C  0.20988850  0.90863898  0.22155466     0.05800
C680        C  0.18500436  0.89464162  0.21842812    -0.13900
Br681      Br  0.18945721  0.82799242  0.24333689    -0.06000
Br682      Br  0.08601609  0.84513075  0.15642918    -0.00300
Br683      Br  0.26074878  0.86894454  0.16414952     0.00100
Br684      Br  0.15418593  0.90399868  0.24079006    -0.04300
Br685      Br  0.14480058  0.77918074  0.23779226     0.00200
Br686      Br  0.13467804  0.89103498  0.16110740    -0.03600
Br687      Br  0.20136598  0.83902959  0.15470997    -0.04500
Br688      Br  0.21336107  0.93721716  0.24834772    -0.00500
C689        C  0.11354378  0.75295301  0.09800662     0.00900
C690        C  0.13670279  0.77011522  0.09875774     0.03800
C691        C  0.15125220  0.77597536  0.07470354    -0.12300
C692        C  0.14282532  0.76512435  0.04942760     0.23100
C693        C  0.11979691  0.74800067  0.04839697    -0.12900
C694        C  0.10528025  0.74178978  0.07263956     0.04500
C695        C  0.15852584  0.77239562  0.02430743     0.26900
C696        C  0.15335295  0.79716307  0.01096346    -0.13600
C697        C  0.17152155  0.80714104  0.99099892     0.05000
C698        C  0.19577501  0.79247708  0.98445443    -0.09500
C699        C  0.19977465  0.76663086  0.99682705     0.05800
C700        C  0.18113873  0.75672641  0.01646820    -0.13900
Br701      Br  0.10838362  0.73306976  0.01374960    -0.06000
Br702      Br  0.14837297  0.78708016  0.13235033    -0.00300
Br703      Br  0.16259796  0.84183975  0.97446326     0.00100
Br704      Br  0.18675428  0.72184000  0.03361883    -0.04300
Br705      Br  0.07513031  0.71677270  0.07130064     0.00200
Br706      Br  0.18297267  0.79925647  0.07619582    -0.03600
Br707      Br  0.12177284  0.81815770  0.02147082    -0.04500
Br708      Br  0.23025542  0.74391635  0.98700275    -0.00500
C709        C  0.20650826  0.36531560  0.00354618     0.00900
C710        C  0.21190585  0.35345902  0.02925159     0.03800
C711        C  0.20464153  0.36711881  0.05337292    -0.12300
C712        C  0.19067821  0.39210982  0.05195878     0.23100
C713        C  0.18486140  0.40379226  0.02620196    -0.12900
C714        C  0.19323252  0.39060015  0.00200321     0.04500
C715        C  0.18317636  0.40616178  0.07780557     0.26900
C716        C  0.16113795  0.39667616  0.09352853    -0.13600
C717        C  0.15750740  0.40605924  0.12051571     0.05000
C718        C  0.17598534  0.42492415  0.13201205    -0.09500
C719        C  0.19655555  0.43625559  0.11523960     0.05800
C720        C  0.20016111  0.42673696  0.08827401    -0.13900
Br721      Br  0.16529810  0.43765929  0.02420141    -0.06000
Br722      Br  0.22876372  0.31813037  0.03165239    -0.00300
Br723      Br  0.12746487  0.39246203  0.14185945     0.00100
Br724      Br  0.23001737  0.43998561  0.06634522    -0.04300
Br725      Br  0.18654917  0.40688156  0.96671272     0.00200
Br726      Br  0.21427512  0.35166139  0.08843479    -0.03600
Br727      Br  0.13707748  0.36938058  0.07860542    -0.04500
Br728      Br  0.22233796  0.46215491  0.12978723    -0.00500
C729        C  0.12372792  0.51045397  0.20717876     0.00900
C730        C  0.12302938  0.51756905  0.17910683     0.03800
C731        C  0.11290756  0.54308992  0.17084805    -0.12300
C732        C  0.10239725  0.56121356  0.19045402     0.23100
C733        C  0.10015558  0.55284054  0.21797685    -0.12900
C734        C  0.11137841  0.52784310  0.22648692     0.04500
C735        C  0.09747117  0.59025239  0.18328526     0.26900
C736        C  0.11870492  0.60917895  0.18677065    -0.13600
C737        C  0.11376584  0.63721562  0.18364902     0.05000
C738        C  0.08733049  0.64664724  0.17706785    -0.09500
C739        C  0.06654558  0.62741560  0.17177644     0.05800
C740        C  0.07161861  0.59932929  0.17488400    -0.13900
Br741      Br  0.08303923  0.57658796  0.24421570    -0.06000
Br742      Br  0.13607103  0.49249216  0.15180064    -0.00300
Br743      Br  0.14308260  0.66236044  0.19090432     0.00100
Br744      Br  0.04313197  0.57315980  0.16829462    -0.04300
Br745      Br  0.11251839  0.51912620  0.26497904     0.00200
Br746      Br  0.11487197  0.55398766  0.13294792    -0.03600
Br747      Br  0.15447265  0.59647775  0.19714930    -0.04500
Br748      Br  0.03123814  0.63933362  0.15956084    -0.00500
C749        C  0.36419002  0.30932357  0.18756050     0.00900
C750        C  0.34060515  0.30473538  0.20381084     0.03800
C751        C  0.32195226  0.32584838  0.20819075    -0.12300
C752        C  0.32751187  0.35205203  0.19830812     0.23100
C753        C  0.35177983  0.35735482  0.18423976    -0.12900
C754        C  0.36933871  0.33585818  0.17745162     0.04500
C755        C  0.30588046  0.37276913  0.19912558     0.26900
C756        C  0.28813746  0.37500293  0.17656887    -0.13600
C757        C  0.26438318  0.39049952  0.17893475     0.05000
C758        C  0.25898409  0.40471598  0.20333742    -0.09500
C759        C  0.27794929  0.40455268  0.22488718     0.05800
C760        C  0.30118018  0.38801403  0.22307282    -0.13900
Br761      Br  0.35993792  0.39412286  0.17320791    -0.06000
Br762      Br  0.33248754  0.26984883  0.22024613    -0.00300
Br763      Br  0.23833846  0.39045892  0.14948151     0.00100
Br764      Br  0.32543869  0.38456470  0.25389788    -0.04300
Br765      Br  0.39740427  0.34276590  0.15076705     0.00200
Br766      Br  0.28777835  0.31863048  0.22645350    -0.03600
Br767      Br  0.29540326  0.35522950  0.14311584    -0.04500
Br768      Br  0.27121055  0.42607500  0.25714250    -0.00500
C769        C  0.85176989  0.69714588  0.08339193     0.00900
C770        C  0.87193035  0.68406806  0.06764803     0.03800
C771        C  0.89959768  0.68590571  0.07546403    -0.12300
C772        C  0.90728802  0.70241257  0.09784714     0.23100
C773        C  0.88724602  0.71705144  0.11219974    -0.12900
C774        C  0.85962276  0.71360394  0.10571424     0.04500
C775        C  0.93602686  0.70392133  0.10758830     0.26900
C776        C  0.94334675  0.69055628  0.13196250    -0.13600
C777        C  0.96809075  0.69673716  0.14520500     0.05000
C778        C  0.98682916  0.71538482  0.13313154    -0.09500
C779        C  0.98030177  0.72663692  0.10715191     0.05800
C780        C  0.95477238  0.72144898  0.09489122    -0.13900
Br781      Br  0.89779874  0.74240250  0.14056119    -0.06000
Br782      Br  0.86158815  0.66360087  0.03562278    -0.00300
Br783      Br  0.97375000  0.68099873  0.18113856     0.00100
Br784      Br  0.94476138  0.73931675  0.06116885    -0.04300
Br785      Br  0.83270518  0.73192454  0.12755041     0.00200
Br786      Br  0.92690067  0.66559604  0.05594374    -0.03600
Br787      Br  0.91837543  0.66454397  0.14784235    -0.04500
Br788      Br  0.00609670  0.74883475  0.08749334    -0.00500
C789        C  0.70294149  0.71682070  0.99401477     0.00900
C790        C  0.69718277  0.74486166  0.99182184     0.03800
C791        C  0.67868034  0.75440502  0.97176221    -0.12300
C792        C  0.66597520  0.73605955  0.95353692     0.23100
C793        C  0.67203339  0.70810327  0.95547691    -0.12900
C794        C  0.69011454  0.69848278  0.97576416     0.04500
C795        C  0.64763683  0.74605262  0.93111505     0.26900
C796        C  0.61945942  0.74946538  0.93551005    -0.13600
C797        C  0.60191868  0.75613974  0.91344846     0.05000
C798        C  0.61247845  0.76018711  0.88685683    -0.09500
C799        C  0.64097050  0.75754093  0.88280540     0.05800
C800        C  0.65828444  0.75038423  0.90474036    -0.13900
Br801      Br  0.65640548  0.68309108  0.92931179    -0.06000
Br802      Br  0.71409524  0.77015399  0.01677995    -0.00300
Br803      Br  0.56337981  0.75981846  0.91968523     0.00100
Br804      Br  0.69678368  0.74517861  0.89854519    -0.04300
Br805      Br  0.69835560  0.66012574  0.97732426     0.00200
Br806      Br  0.67116749  0.79272349  0.96865603    -0.03600
Br807      Br  0.60496781  0.74443426  0.97180090    -0.04500
Br808      Br  0.65687543  0.76138425  0.84694557    -0.00500
C809        C  0.99597029  0.29440653  0.86439079     0.00900
C810        C  0.00369145  0.28381468  0.89041376     0.03800
C811        C  0.02863265  0.29170128  0.90257615    -0.12300
C812        C  0.04515140  0.31137818  0.88993652     0.23100
C813        C  0.03602377  0.32428541  0.86602757    -0.12900
C814        C  0.01292216  0.31453754  0.85216718     0.04500
C815        C  0.07450003  0.31373875  0.89711817     0.26900
C816        C  0.08393729  0.33128376  0.91794414    -0.13600
C817        C  0.11215882  0.33336991  0.92329863     0.05000
C818        C  0.13094224  0.31974061  0.90632762    -0.09500
C819        C  0.12134330  0.30414913  0.88406890     0.05800
C820        C  0.09338028  0.29968035  0.88072073    -0.13900
Br821      Br  0.05686984  0.35421079  0.85126620    -0.06000
Br822      Br  0.98116977  0.25795884  0.90966341    -0.00300
Br823      Br  0.12524343  0.35582216  0.95286891     0.00100
Br824      Br  0.08085337  0.27357843  0.85388497    -0.04300
Br825      Br  0.00870484  0.32590291  0.81444733     0.00200
Br826      Br  0.04111089  0.27483580  0.93600206    -0.03600
Br827      Br  0.05831016  0.35277788  0.93841568    -0.04500
Br828      Br  0.14607948  0.28911881  0.85741711    -0.00500
C829        C  0.86278241  0.19437721  0.81149833     0.00900
C830        C  0.87404920  0.17079572  0.79961192     0.03800
C831        C  0.85696880  0.14900485  0.79200395    -0.12300
C832        C  0.82857266  0.15137695  0.79499037     0.23100
C833        C  0.81741703  0.17478782  0.80722672    -0.12900
C834        C  0.83455218  0.19575014  0.81634646     0.04500
C835        C  0.80990784  0.12932531  0.78620633     0.26900
C836        C  0.79749993  0.13049698  0.76017848    -0.13600
C837        C  0.77382318  0.11523405  0.75497320     0.05000
C838        C  0.76298565  0.09841505  0.77559202    -0.09500
C839        C  0.77734141  0.09473510  0.80030822     0.05800
C840        C  0.80078526  0.11026645  0.80564594    -0.13900
Br841      Br  0.77844385  0.17828207  0.81113524    -0.06000
Br842      Br  0.91255627  0.16880004  0.79257518    -0.00300
Br843      Br  0.75525713  0.11851991  0.72029182     0.00100
Br844      Br  0.81920612  0.10729029  0.84042787    -0.04300
Br845      Br  0.81943205  0.22561311  0.83698384     0.00200
Br846      Br  0.87221121  0.11589550  0.77762172    -0.03600
Br847      Br  0.81193428  0.15441843  0.73249305    -0.04500
Br848      Br  0.76352186  0.07025994  0.82779803    -0.00500
C849        C  0.77016899  0.22386354  0.99810701     0.00900
C850        C  0.76489537  0.22367425  0.96976365     0.03800
C851        C  0.78461209  0.23346563  0.95136713    -0.12300
C852        C  0.81006538  0.24245212  0.96122854     0.23100
C853        C  0.81508541  0.24318559  0.98963115    -0.12900
C854        C  0.79492043  0.23446388  0.00805525     0.04500
C855        C  0.83223150  0.24871968  0.94158635     0.26900
C856        C  0.84938786  0.22766069  0.93254631    -0.13600
C857        C  0.86892868  0.23270118  0.91216116     0.05000
C858        C  0.87114888  0.25882735  0.90032983    -0.09500
C859        C  0.85475043  0.28018702  0.91031566     0.05800
C860        C  0.83536022  0.27513755  0.93095451    -0.13900
Br861      Br  0.85024888  0.25439238  0.00311033    -0.06000
Br862      Br  0.73149117  0.20810722  0.95613316    -0.00300
Br863      Br  0.89082817  0.20291291  0.89903048     0.00100
Br864      Br  0.81203214  0.30391394  0.94383134    -0.04300
Br865      Br  0.80145599  0.23645682  0.04691688     0.00200
Br866      Br  0.77744912  0.23322847  0.91250966    -0.03600
Br867      Br  0.84472754  0.19136763  0.94691643    -0.04500
Br868      Br  0.85878412  0.31631510  0.89557036    -0.00500
C869        C  0.80921130  0.58226756  0.85588349     0.00900
C870        C  0.78776545  0.57259819  0.87263026     0.03800
C871        C  0.78600541  0.58086137  0.90022899    -0.12300
C872        C  0.80587705  0.59822956  0.91144736     0.23100
C873        C  0.82880513  0.60531119  0.89570969    -0.12900
C874        C  0.83027770  0.59777252  0.86789498     0.04500
C875        C  0.79988117  0.61341070  0.93713976     0.26900
C876        C  0.78776566  0.63928359  0.93504053    -0.13600
C877        C  0.78141322  0.65414169  0.95871752     0.05000
C878        C  0.78625738  0.64292093  0.98483536    -0.09500
C879        C  0.79872895  0.61721871  0.98710670     0.05800
C880        C  0.80548368  0.60239810  0.96325154    -0.13900
Br881      Br  0.85724454  0.62695548  0.91201922    -0.06000
Br882      Br  0.75889324  0.55056951  0.85749535    -0.00300
Br883      Br  0.76576961  0.68992993  0.95508495     0.00100
Br884      Br  0.82175921  0.56690470  0.96617843    -0.04300
Br885      Br  0.86078453  0.60953706  0.84607646     0.00200
Br886      Br  0.75503488  0.57054733  0.92217323    -0.03600
Br887      Br  0.77879755  0.65401894  0.89950122    -0.04500
Br888      Br  0.80741206  0.60303323  0.02286319    -0.00500
C889        C  0.89451508  0.35892351  0.81326341     0.00900
C890        C  0.86787725  0.36690571  0.80559631     0.03800
C891        C  0.86207132  0.39441742  0.80003073    -0.12300
C892        C  0.88266481  0.41425264  0.80203652     0.23100
C893        C  0.90885235  0.40661342  0.81095357    -0.12900
C894        C  0.91462075  0.37914124  0.81698516     0.04500
C895        C  0.87638105  0.44299577  0.79454102     0.26900
C896        C  0.87612204  0.45096534  0.76678086    -0.13600
C897        C  0.86599617  0.47673172  0.75916757     0.05000
C898        C  0.85602999  0.49473640  0.77931346    -0.09500
C899        C  0.85750820  0.48716604  0.80721738     0.05800
C900        C  0.86779695  0.46148617  0.81478434    -0.13900
Br901      Br  0.93696800  0.43376237  0.81413014    -0.06000
Br902      Br  0.83920693  0.34041783  0.80123227    -0.00300
Br903      Br  0.86319751  0.48605434  0.72087956     0.00100
Br904      Br  0.86883150  0.45094204  0.85284336    -0.04300
Br905      Br  0.94960654  0.36948655  0.83197390     0.00200
Br906      Br  0.82593294  0.40505578  0.78863006    -0.03600
Br907      Br  0.88805036  0.42568349  0.73907775    -0.04500
Br908      Br  0.84476444  0.51164443  0.83524995    -0.00500
C909        C  0.72594782  0.60724965  0.78597387     0.00900
C910        C  0.70345300  0.60101260  0.76925961     0.03800
C911        C  0.67882557  0.61522588  0.77279362    -0.12300
C912        C  0.67733174  0.63668764  0.79193238     0.23100
C913        C  0.69973532  0.64231885  0.80910937    -0.12900
C914        C  0.72367888  0.62710908  0.80659219     0.04500
C915        C  0.65348832  0.65511869  0.79274397     0.26900
C916        C  0.65115647  0.67593233  0.77303412    -0.13600
C917        C  0.63220933  0.69700817  0.77677196     0.05000
C918        C  0.61575805  0.69757253  0.80044105    -0.09500
C919        C  0.61785273  0.67647866  0.81991801     0.05800
C920        C  0.63599743  0.65481418  0.81556377    -0.13900
Br921      Br  0.69834819  0.67196457  0.83511180    -0.06000
Br922      Br  0.70724726  0.57482893  0.74010886    -0.00300
Br923      Br  0.62973408  0.72554685  0.74979883     0.00100
Br924      Br  0.63831231  0.62547839  0.84172007    -0.04300
Br925      Br  0.75360552  0.63367742  0.83134739     0.00200
Br926      Br  0.64744015  0.60594107  0.75101971    -0.03600
Br927      Br  0.67514028  0.67647867  0.74169449    -0.04500
Br928      Br  0.59901908  0.67916656  0.85446624    -0.00500
C929        C  0.09166543  0.71627983  0.26596040     0.00900
C930        C  0.09280710  0.73866370  0.28392164     0.03800
C931        C  0.10758059  0.73662272  0.30858501    -0.12300
C932        C  0.12116388  0.71223748  0.31508864     0.23100
C933        C  0.11731932  0.68903483  0.29863929    -0.12900
C934        C  0.10229567  0.69100846  0.27425294     0.04500
C935        C  0.14355754  0.71211445  0.33542934     0.26900
C936        C  0.16976245  0.71918262  0.32657545    -0.13600
C937        C  0.19243548  0.71453562  0.34347096     0.05000
C938        C  0.18899294  0.70253729  0.36987436    -0.09500
C939        C  0.16209173  0.69747610  0.37938531     0.05800
C940        C  0.13957476  0.70223528  0.36208298    -0.13900
Br941      Br  0.13490503  0.65523483  0.30822517    -0.06000
Br942      Br  0.07606953  0.77259607  0.27372914    -0.00300
Br943      Br  0.22770918  0.72366681  0.32821854     0.00100
Br944      Br  0.10304928  0.69472520  0.37435286    -0.04300
Br945      Br  0.09643874  0.65914801  0.25206767     0.00200
Br946      Br  0.11136106  0.76769581  0.33231254    -0.03600
Br947      Br  0.17456592  0.73402236  0.29017028    -0.04500
Br948      Br  0.15501630  0.68437006  0.41602173    -0.00500
C949        C  0.24627839  0.60573126  0.37789942     0.00900
C950        C  0.21990456  0.59427951  0.37720990     0.03800
C951        C  0.21406236  0.57228218  0.35957148    -0.12300
C952        C  0.23468066  0.56103203  0.34302409     0.23100
C953        C  0.26152731  0.57086354  0.34555205    -0.12900
C954        C  0.26725530  0.59333610  0.36264533     0.04500
C955        C  0.22787084  0.54008559  0.32184397     0.26900
C956        C  0.22558286  0.51238886  0.32892987    -0.13600
C957        C  0.21850167  0.49296513  0.30881944     0.05000
C958        C  0.21302713  0.50114789  0.28160779    -0.09500
C959        C  0.21629538  0.52865459  0.27436334     0.05800
C960        C  0.22345926  0.54805710  0.29440053    -0.13900
Br961      Br  0.29030512  0.55346229  0.32529533    -0.06000
Br962      Br  0.19124448  0.60945878  0.39938156    -0.00300
Br963      Br  0.21730880  0.45502051  0.31838099     0.00100
Br964      Br  0.22563283  0.58594178  0.28459166    -0.04300
Br965      Br  0.30397312  0.60677524  0.36568201     0.00200
Br966      Br  0.17751616  0.55812425  0.35726138    -0.03600
Br967      Br  0.23106807  0.50133730  0.36646544    -0.04500
Br968      Br  0.20973248  0.53990750  0.23708687    -0.00500
C969        C  0.31146334  0.87587542  0.29904602     0.00900
C970        C  0.32291506  0.88102321  0.32528806     0.03800
C971        C  0.31798147  0.86300402  0.34722042    -0.12300
C972        C  0.30411854  0.83839820  0.34255733     0.23100
C973        C  0.29398308  0.83248622  0.31625275    -0.12900
C974        C  0.29617723  0.85170439  0.29508252     0.04500
C975        C  0.30029633  0.81812781  0.36480919     0.26900
C976        C  0.32192906  0.80091414  0.37251091    -0.13600
C977        C  0.31694389  0.77852254  0.38968009     0.05000
C978        C  0.29006979  0.77162254  0.39681912    -0.09500
C979        C  0.26868506  0.78950233  0.39031018     0.05800
C980        C  0.27400349  0.81336397  0.37533215    -0.13900
Br981      Br  0.27782405  0.79731847  0.30900283    -0.06000
Br982      Br  0.34752825  0.91106866  0.33131739    -0.00300
Br983      Br  0.34684908  0.75707580  0.40321065     0.00100
Br984      Br  0.24492515  0.83841821  0.36708400    -0.04300
Br985      Br  0.27650086  0.84478301  0.26148345     0.00200
Br986      Br  0.33028822  0.87182451  0.38373543    -0.03600
Br987      Br  0.35771077  0.80605809  0.35713817    -0.04500
Br988      Br  0.23187777  0.78001763  0.39958528    -0.00500
C989        C  0.35225143  0.68235861  0.39414850     0.00900
C990        C  0.35924655  0.69674296  0.37016157     0.03800
C991        C  0.38666325  0.70140858  0.36387415    -0.12300
C992        C  0.40728853  0.68849246  0.37917195     0.23100
C993        C  0.40017313  0.67112451  0.40101458    -0.12900
C994        C  0.37275395  0.66912874  0.40934558     0.04500
C995        C  0.43614390  0.69281110  0.37119696     0.26900
C996        C  0.44538639  0.68224259  0.34616567    -0.13600
C997        C  0.46984327  0.69166371  0.33471964     0.05000
C998        C  0.48705012  0.70956144  0.34980231    -0.09500
C999        C  0.47866998  0.71816128  0.37619411     0.05800
C1000       C  0.45293875  0.71050019  0.38637426    -0.13900
Br1001     Br  0.42785981  0.64963053  0.41874125    -0.06000
Br1002     Br  0.33162529  0.71051074  0.34566262    -0.00300
Br1003     Br  0.47662721  0.68249311  0.29678966     0.00100
Br1004     Br  0.43998354  0.72537361  0.42053042    -0.04300
Br1005     Br  0.36305679  0.64745884  0.44071404     0.00200
Br1006     Br  0.39590929  0.72647342  0.33480087    -0.03600
Br1007     Br  0.42325859  0.65595243  0.32674766    -0.04500
Br1008     Br  0.50196801  0.74044807  0.39886989    -0.00500
C1009       C  0.59652550  0.72467950  0.22440478     0.00900
C1010       C  0.61504238  0.74419948  0.21466295     0.03800
C1011       C  0.63003087  0.73896337  0.19079767    -0.12300
C1012       C  0.62635792  0.71422921  0.17672055     0.23100
C1013       C  0.60609279  0.69582405  0.18511930    -0.12900
C1014       C  0.59106613  0.70109946  0.20896827     0.04500
C1015       C  0.64682924  0.70563619  0.15641042     0.26900
C1016       C  0.64451105  0.71317619  0.12867940    -0.13600
C1017       C  0.66531745  0.70629063  0.11013655     0.05000
C1018       C  0.68877259  0.69279898  0.11970156    -0.09500
C1019       C  0.69074821  0.68487568  0.14738926     0.05800
C1020       C  0.66957701  0.69080805  0.16556324    -0.13900
Br1021     Br  0.60105048  0.66215647  0.16548974    -0.06000
Br1022     Br  0.62062272  0.77751957  0.23473497    -0.00300
Br1023     Br  0.66235549  0.71649808  0.07212037     0.00100
Br1024     Br  0.67197446  0.67910892  0.20331070    -0.04300
Br1025     Br  0.56499483  0.67474230  0.22187218     0.00200
Br1026     Br  0.65736223  0.76444465  0.17874822    -0.03600
Br1027     Br  0.61335461  0.73376681  0.11663659    -0.04500
Br1028     Br  0.72261410  0.66608441  0.16077562    -0.00500
C1029       C  0.39553263  0.88225894  0.23118036     0.00900
C1030       C  0.42140990  0.89323033  0.23713351     0.03800
C1031       C  0.44323966  0.87592649  0.24415053    -0.12300
C1032       C  0.43913627  0.84761861  0.24604221     0.23100
C1033       C  0.41374519  0.83650708  0.23869423    -0.12900
C1034       C  0.39218657  0.85364791  0.23076771     0.04500
C1035       C  0.46094443  0.82951496  0.25693548     0.26900
C1036       C  0.47608694  0.81285336  0.23909101    -0.13600
C1037       C  0.49514145  0.79412628  0.24967389     0.05000
C1038       C  0.49995562  0.79271801  0.27817885    -0.09500
C1039       C  0.48472194  0.80946753  0.29601526     0.05800
C1040       C  0.46525616  0.82767450  0.28543257    -0.13900
Br1041     Br  0.40813793  0.79766003  0.24080967    -0.06000
Br1042     Br  0.42702929  0.93197342  0.23511157    -0.00300
Br1043     Br  0.51456559  0.77056976  0.22494176     0.00100
Br1044     Br  0.44379502  0.84959905  0.31010834    -0.04300
Br1045     Br  0.35784730  0.83726230  0.22096395     0.00200
Br1046     Br  0.47878044  0.89083724  0.25153815    -0.03600
Br1047     Br  0.47053811  0.81586088  0.20007144    -0.04500
Br1048     Br  0.48874219  0.80611879  0.33525430    -0.00500
C1049       C  0.59308089  0.11736291  0.75629944     0.00900
C1050       C  0.57589888  0.11473818  0.73312130     0.03800
C1051       C  0.55530542  0.13410040  0.72813031    -0.12300
C1052       C  0.55064421  0.15539377  0.74687694     0.23100
C1053       C  0.56593210  0.15644004  0.77131493    -0.12900
C1054       C  0.58700676  0.13750153  0.77605800     0.04500
C1055       C  0.53048510  0.17721116  0.74022157     0.26900
C1056       C  0.53944238  0.20223376  0.72937420    -0.13600
C1057       C  0.52044280  0.22254793  0.72220317     0.05000
C1058       C  0.49225534  0.21699219  0.72315388    -0.09500
C1059       C  0.48333643  0.19181953  0.73365920     0.05800
C1060       C  0.50234871  0.17259729  0.74343278    -0.13900
Br1061     Br  0.55857675  0.18460877  0.79774595    -0.06000
Br1062     Br  0.58083607  0.08552511  0.70717437    -0.00300
Br1063     Br  0.53322513  0.25763285  0.71017160     0.00100
Br1064     Br  0.48999224  0.13977089  0.76099828    -0.04300
Br1065     Br  0.60690859  0.13858908  0.81018279     0.00200
Br1066     Br  0.53477953  0.13272054  0.69440700    -0.03600
Br1067     Br  0.57771349  0.20785935  0.72254718    -0.04500
Br1068     Br  0.44510356  0.18324314  0.73369008    -0.00500
C1069       C  0.39390473  0.29302942  0.76464774     0.00900
C1070       C  0.39019112  0.26961412  0.78075498     0.03800
C1071       C  0.37147297  0.26996020  0.80250170    -0.12300
C1072       C  0.35819069  0.29437410  0.80939541     0.23100
C1073       C  0.36437407  0.31850775  0.79520242    -0.12900
C1074       C  0.38111606  0.31753451  0.77202815     0.04500
C1075       C  0.33521514  0.29451198  0.82888702     0.26900
C1076       C  0.30850504  0.29547450  0.81852769    -0.13600
C1077       C  0.28670026  0.30131227  0.83607749     0.05000
C1078       C  0.29136752  0.30466453  0.86452617    -0.09500
C1079       C  0.31793155  0.30095035  0.87512437     0.05800
C1080       C  0.33988855  0.29646394  0.85721623    -0.13900
Br1081     Br  0.34813488  0.35252133  0.80632386    -0.06000
Br1082     Br  0.40932036  0.23669925  0.77159095    -0.00300
Br1083     Br  0.25109631  0.30688020  0.82009869     0.00100
Br1084     Br  0.37652013  0.29348248  0.87117355    -0.04300
Br1085     Br  0.38339087  0.34883954  0.74854987     0.00200
Br1086     Br  0.36210734  0.23668616  0.82105847    -0.03600
Br1087     Br  0.30205309  0.28943487  0.77990675    -0.04500
Br1088     Br  0.32444311  0.30071271  0.91407054    -0.00500
C1089       C  0.35383266  0.49366666  0.70403628     0.00900
C1090       C  0.34079021  0.46811321  0.70286061     0.03800
C1091       C  0.35602240  0.44437069  0.69786421    -0.12300
C1092       C  0.38409071  0.44603966  0.69204980     0.23100
C1093       C  0.39683193  0.47179005  0.69166801    -0.12900
C1094       C  0.38179142  0.49548712  0.69792479     0.04500
C1095       C  0.39986888  0.42045508  0.68710355     0.26900
C1096       C  0.41551217  0.40881746  0.70832539    -0.13600
C1097       C  0.42712285  0.38275478  0.70503252     0.05000
C1098       C  0.42052317  0.36684412  0.68183633    -0.09500
C1099       C  0.40648740  0.37921120  0.65985798     0.05800
C1100       C  0.39702063  0.40623778  0.66215328    -0.13900
Br1101     Br  0.43495893  0.47449203  0.68304173    -0.06000
Br1102     Br  0.30201775  0.46531343  0.70859422    -0.00300
Br1103     Br  0.45076923  0.36847708  0.73313959     0.00100
Br1104     Br  0.37907964  0.42356882  0.63163632    -0.04300
Br1105     Br  0.39902594  0.53069702  0.69695053     0.00200
Br1106     Br  0.33872882  0.40923963  0.70073465    -0.03600
Br1107     Br  0.41856725  0.42739641  0.74300353    -0.04500
Br1108     Br  0.40030157  0.35902703  0.62658614    -0.00500
C1109       C  0.30128329  0.59046834  0.63595146     0.00900
C1110       C  0.28370766  0.61127296  0.62689457     0.03800
C1111       C  0.28129175  0.61706751  0.59886866    -0.12300
C1112       C  0.29769517  0.60331006  0.57977886     0.23100
C1113       C  0.31565863  0.58279785  0.58872675    -0.12900
C1114       C  0.31671740  0.57570897  0.61673142     0.04500
C1115       C  0.29718171  0.61247838  0.55083623     0.26900
C1116       C  0.27855816  0.60113057  0.53217734    -0.13600
C1117       C  0.27353212  0.61397593  0.50686847     0.05000
C1118       C  0.28687559  0.63871921  0.50029409    -0.09500
C1119       C  0.30726009  0.64878207  0.51843306     0.05800
C1120       C  0.31235487  0.63550953  0.54343740    -0.13900
Br1121     Br  0.33956351  0.56554309  0.56278834    -0.06000
Br1122     Br  0.26307110  0.63239378  0.65271501    -0.00300
Br1123     Br  0.24834005  0.59711442  0.48157682     0.00100
Br1124     Br  0.33885088  0.64991524  0.56895148    -0.04300
Br1125     Br  0.33943336  0.54615445  0.62889543     0.00200
Br1126     Br  0.25584141  0.64443043  0.58650874    -0.03600
Br1127     Br  0.25891886  0.56867067  0.54215574    -0.04500
Br1128     Br  0.32714231  0.68203719  0.51141625    -0.00500
C1129       C  0.23174340  0.40056628  0.87594000     0.00900
C1130       C  0.24720148  0.42268889  0.88681068     0.03800
C1131       C  0.25333607  0.44556261  0.87034594    -0.12300
C1132       C  0.24493471  0.44660105  0.84282816     0.23100
C1133       C  0.22789733  0.42602670  0.83254537    -0.12900
C1134       C  0.22054286  0.40366381  0.84915022     0.04500
C1135       C  0.25619505  0.46779055  0.82399143     0.26900
C1136       C  0.24172312  0.49193924  0.81817263    -0.13600
C1137       C  0.25223804  0.51095569  0.79922430     0.05000
C1138       C  0.27743033  0.50611049  0.78640428    -0.09500
C1139       C  0.29242752  0.48264445  0.79318547     0.05800
C1140       C  0.28176639  0.46346827  0.81167388    -0.13900
Br1141     Br  0.21561534  0.42815581  0.79498163    -0.06000
Br1142     Br  0.26131077  0.42257270  0.92379512    -0.00300
Br1143     Br  0.23263229  0.54397106  0.79116339     0.00100
Br1144     Br  0.30241503  0.43124703  0.82043247    -0.04300
Br1145     Br  0.19390542  0.37846849  0.83479072     0.00200
Br1146     Br  0.27427563  0.47553052  0.88492065    -0.03600
Br1147     Br  0.20796352  0.49922748  0.83671688    -0.04500
Br1148     Br  0.32798344  0.47696668  0.77756289    -0.00500
C1149       C  0.27102755  0.73841858  0.89028599     0.00900
C1150       C  0.29486189  0.72371195  0.89668551     0.03800
C1151       C  0.30194728  0.70057584  0.88118961    -0.12300
C1152       C  0.28494604  0.69178433  0.85966348     0.23100
C1153       C  0.26002492  0.70508174  0.85485413    -0.12900
C1154       C  0.25322431  0.72847916  0.86991303     0.04500
C1155       C  0.29432620  0.67067712  0.84003782     0.26900
C1156       C  0.30779781  0.67879009  0.81594528    -0.13600
C1157       C  0.31384357  0.65958858  0.79553916     0.05000
C1158       C  0.30644931  0.63206532  0.79905935    -0.09500
C1159       C  0.29420067  0.62369752  0.82376021     0.05800
C1160       C  0.28806602  0.64303102  0.84419154    -0.13900
Br1161     Br  0.23602674  0.69205689  0.82635362    -0.06000
Br1162     Br  0.31904085  0.73658686  0.92500680    -0.00300
Br1163     Br  0.33255126  0.67119931  0.76278657     0.00100
Br1164     Br  0.27011426  0.63206758  0.87745404    -0.04300
Br1165     Br  0.21991548  0.74748177  0.86183263     0.00200
Br1166     Br  0.33580182  0.68196877  0.88802886    -0.03600
Br1167     Br  0.31714927  0.71655108  0.81054154    -0.04500
Br1168     Br  0.28428385  0.58617915  0.82893128    -0.00500
C1169       C  0.39192117  0.61857004  0.73474897     0.00900
C1170       C  0.40562565  0.62877933  0.71157675     0.03800
C1171       C  0.42743705  0.64735657  0.71473446    -0.12300
C1172       C  0.43549545  0.65601187  0.74112883     0.23100
C1173       C  0.42214074  0.64530737  0.76425766    -0.12900
C1174       C  0.40098797  0.62622779  0.76114091     0.04500
C1175       C  0.45744083  0.67675849  0.74527307     0.26900
C1176       C  0.48441998  0.66848999  0.75064390    -0.13600
C1177       C  0.50374669  0.68736009  0.76060913     0.05000
C1178       C  0.49618463  0.71460975  0.76547668    -0.09500
C1179       C  0.46975883  0.72327580  0.75817762     0.05800
C1180       C  0.45056611  0.70446962  0.74790392    -0.13900
Br1181     Br  0.43180141  0.65823034  0.80037764    -0.06000
Br1182     Br  0.39477331  0.61658651  0.67566673    -0.00300
Br1183     Br  0.54066945  0.67597358  0.76742341     0.00100
Br1184     Br  0.41433140  0.71629893  0.73850293    -0.04300
Br1185     Br  0.38406774  0.61139430  0.79343380     0.00200
Br1186     Br  0.44557658  0.66181868  0.68301341    -0.03600
Br1187     Br  0.49450150  0.63103557  0.74511218    -0.04500
Br1188     Br  0.45911319  0.76052523  0.76418553    -0.00500
C1189       C  0.59065860  0.64682313  0.30372460     0.00900
C1190       C  0.57031723  0.62675811  0.30699095     0.03800
C1191       C  0.57659064  0.59902537  0.30323428    -0.12300
C1192       C  0.60314168  0.59110093  0.29596080     0.23100
C1193       C  0.62361294  0.61097149  0.29327488    -0.12900
C1194       C  0.61744269  0.63870001  0.29701874     0.04500
C1195       C  0.60946445  0.56206205  0.28992999     0.26900
C1196       C  0.62042161  0.54514242  0.31041774    -0.13600
C1197       C  0.62884645  0.51854257  0.30394878     0.05000
C1198       C  0.62745962  0.50897267  0.27668270    -0.09500
C1199       C  0.61445849  0.52521939  0.25662092     0.05800
C1200       C  0.60561828  0.55171804  0.26326901    -0.13900
Br1201     Br  0.66007735  0.60007961  0.28361317    -0.06000
Br1202     Br  0.53384223  0.63700287  0.31705447    -0.00300
Br1203     Br  0.64145672  0.49480755  0.33275647     0.00100
Br1204     Br  0.58963399  0.57471047  0.23551312    -0.04300
Br1205     Br  0.64548612  0.66543128  0.29059655     0.00200
Br1206     Br  0.54880847  0.57170102  0.30771348    -0.03600
Br1207     Br  0.62518391  0.55900418  0.34705836    -0.04500
Br1208     Br  0.60983259  0.51218847  0.21963750    -0.00500
C1209       C  0.68846526  0.37992274  0.18393609     0.00900
C1210       C  0.70753050  0.35852496  0.18661468     0.03800
C1211       C  0.71054486  0.33930213  0.16552629    -0.12300
C1212       C  0.69519633  0.34168467  0.14128607     0.23100
C1213       C  0.67820755  0.36433025  0.13734686    -0.12900
C1214       C  0.67466245  0.38340000  0.15860185     0.04500
C1215       C  0.69372796  0.31808502  0.12243927     0.26900
C1216       C  0.71256234  0.31487793  0.10093542    -0.13600
C1217       C  0.71435507  0.28980272  0.08707920     0.05000
C1218       C  0.69738616  0.26809830  0.09484523    -0.09500
C1219       C  0.67715994  0.27208297  0.11480189     0.05800
C1220       C  0.67517850  0.29709270  0.12839333    -0.13900
Br1221     Br  0.65813352  0.36773669  0.10352486    -0.06000
Br1222     Br  0.72978058  0.35509080  0.21901457    -0.00300
Br1223     Br  0.74086385  0.28453500  0.05855524     0.00100
Br1224     Br  0.64794133  0.30212288  0.15633139    -0.04300
Br1225     Br  0.64801727  0.41187748  0.15371486     0.00200
Br1226     Br  0.73415019  0.30825208  0.17056942    -0.03600
Br1227     Br  0.73639145  0.34442342  0.09131571    -0.04500
Br1228     Br  0.65290111  0.24286370  0.12454270    -0.00500
C1229       C  0.59643816  0.38068651  0.24680898     0.00900
C1230       C  0.59593647  0.36135895  0.22538003     0.03800
C1231       C  0.57388295  0.34344722  0.22212447    -0.12300
C1232       C  0.55212789  0.34390088  0.24074950     0.23100
C1233       C  0.55245892  0.36288491  0.26248372    -0.12900
C1234       C  0.57435381  0.38146992  0.26525623     0.04500
C1235       C  0.52820248  0.32583561  0.23550234     0.26900
C1236       C  0.50554766  0.33626001  0.22134473    -0.13600
C1237       C  0.48473432  0.31875968  0.21222148     0.05000
C1238       C  0.48713986  0.29023082  0.21531435    -0.09500
C1239       C  0.50990714  0.27979120  0.22977044     0.05800
C1240       C  0.52982063  0.29762375  0.24053432    -0.13900
Br1241     Br  0.52281738  0.36336066  0.28824738    -0.06000
Br1242     Br  0.62578104  0.35806441  0.20063605    -0.00300
Br1243     Br  0.45284655  0.33456834  0.19586369     0.00100
Br1244     Br  0.56051678  0.28335292  0.26061217    -0.04300
Br1245     Br  0.57331105  0.40908007  0.29315652     0.00200
Br1246     Br  0.57317612  0.31835686  0.19155296    -0.03600
Br1247     Br  0.50423581  0.37448308  0.21233997    -0.04500
Br1248     Br  0.51599863  0.24108452  0.23225149    -0.00500
C1249       C  0.75267871  0.60746615  0.11433934     0.00900
C1250       C  0.72708047  0.59414204  0.11464039     0.03800
C1251       C  0.72172293  0.57316116  0.13367398    -0.12300
C1252       C  0.74197405  0.56448632  0.15218886     0.23100
C1253       C  0.76762974  0.57736100  0.15175866    -0.12900
C1254       C  0.77290062  0.59883016  0.13312474     0.04500
C1255       C  0.73558501  0.54245057  0.17253459     0.26900
C1256       C  0.72544266  0.54917788  0.19870907    -0.13600
C1257       C  0.71546667  0.52867223  0.21630347     0.05000
C1258       C  0.71596920  0.50115784  0.20816869    -0.09500
C1259       C  0.72774759  0.49421228  0.18279752     0.05800
C1260       C  0.73735446  0.51477284  0.16497823    -0.13900
Br1261     Br  0.79514079  0.56610765  0.17755991    -0.06000
Br1262     Br  0.69813985  0.60566454  0.09055198    -0.00300
Br1263     Br  0.69993674  0.53837753  0.25118798     0.00100
Br1264     Br  0.75239698  0.50519963  0.12986081    -0.04300
Br1265     Br  0.80804973  0.61624278  0.13323375     0.00200
Br1266     Br  0.68582504  0.55728591  0.13578468    -0.03600
Br1267     Br  0.72454280  0.58668783  0.21011639    -0.04500
Br1268     Br  0.73058477  0.45646958  0.17255850    -0.00500
C1269       C  0.70322110  0.36157378  0.48502907     0.00900
C1270       C  0.70184702  0.34713496  0.46004735     0.03800
C1271       C  0.69550605  0.36080112  0.43546382    -0.12300
C1272       C  0.68922864  0.38880687  0.43566091     0.23100
C1273       C  0.68901744  0.40289771  0.46088746    -0.12900
C1274       C  0.69621732  0.38935717  0.48543449     0.04500
C1275       C  0.68399999  0.40303638  0.40899151     0.26900
C1276       C  0.70517616  0.41733036  0.39590510    -0.13600
C1277       C  0.70249274  0.42540373  0.36826639     0.05000
C1278       C  0.67871520  0.41882144  0.35322660    -0.09500
C1279       C  0.65689202  0.40609869  0.36691225     0.05800
C1280       C  0.65924358  0.39901660  0.39487623    -0.13900
Br1281     Br  0.67919806  0.44077743  0.46171549    -0.06000
Br1282     Br  0.70958677  0.30866883  0.45906888    -0.00300
Br1283     Br  0.73274748  0.44316684  0.35055484     0.00100
Br1284     Br  0.62870860  0.38353798  0.41404351    -0.04300
Br1285     Br  0.69554358  0.40841339  0.51993431     0.00200
Br1286     Br  0.69681738  0.34135230  0.40109914    -0.03600
Br1287     Br  0.73845464  0.42476774  0.41558130    -0.04500
Br1288     Br  0.62395865  0.39782355  0.34723932    -0.00500
C1289       C  0.64260170  0.30931138  0.58949638     0.00900
C1290       C  0.62258350  0.30357182  0.56933010     0.03800
C1291       C  0.59588786  0.29657297  0.57711364    -0.12300
C1292       C  0.58817019  0.29752973  0.60479478     0.23100
C1293       C  0.60762392  0.30393730  0.62495912    -0.12900
C1294       C  0.63492596  0.30872261  0.61756599     0.04500
C1295       C  0.55971862  0.29126921  0.61301704     0.26900
C1296       C  0.54020767  0.31222094  0.61442097    -0.13600
C1297       C  0.51428056  0.30701328  0.62549050     0.05000
C1298       C  0.50759269  0.28072620  0.63470964    -0.09500
C1299       C  0.52670955  0.25945959  0.63212361     0.05800
C1300       C  0.55270336  0.26474172  0.62127286    -0.13900
Br1301     Br  0.59671345  0.30513726  0.66299038    -0.06000
Br1302     Br  0.63090766  0.30598169  0.53075815    -0.00300
Br1303     Br  0.48802775  0.33597589  0.62873137     0.00100
Br1304     Br  0.57924644  0.23594294  0.61865165    -0.04300
Br1305     Br  0.66156259  0.31137173  0.64661984     0.00200
Br1306     Br  0.57002400  0.28425702  0.55006687    -0.03600
Br1307     Br  0.54944253  0.34823317  0.60196890    -0.04500
Br1308     Br  0.51826617  0.22351806  0.64547042    -0.00500
C1309       C  0.71942275  0.23514523  0.59601162     0.00900
C1310       C  0.73808821  0.22532687  0.61555303     0.03800
C1311       C  0.73128331  0.20273247  0.63185556    -0.12300
C1312       C  0.70593998  0.18971953  0.62829626     0.23100
C1313       C  0.68832936  0.19814049  0.60716933    -0.12900
C1314       C  0.69493691  0.22097695  0.59119448     0.04500
C1315       C  0.69645202  0.16952199  0.64873686     0.26900
C1316       C  0.70125281  0.14155332  0.64495487    -0.13600
C1317       C  0.69372210  0.12285079  0.66546517     0.05000
C1318       C  0.68090474  0.13210960  0.68953808    -0.09500
C1319       C  0.67476778  0.15995721  0.69255239     0.05800
C1320       C  0.68257421  0.17861102  0.67223860    -0.13900
Br1321     Br  0.65421249  0.17954238  0.60161093    -0.06000
Br1322     Br  0.77245158  0.24366710  0.62057084    -0.00300
Br1323     Br  0.70233502  0.08487943  0.66122263     0.00100
Br1324     Br  0.67424815  0.21675475  0.67649187    -0.04300
Br1325     Br  0.66908261  0.23438712  0.56468876     0.00200
Br1326     Br  0.75573192  0.19076642  0.66036595    -0.03600
Br1327     Br  0.71809277  0.12910941  0.61162360    -0.04500
Br1328     Br  0.65514779  0.17257470  0.72433977    -0.00500
C1329       C  0.80588299  0.32301010  0.62172380     0.00900
C1330       C  0.80309515  0.33139473  0.64922278     0.03800
C1331       C  0.82318544  0.32478265  0.66855740    -0.12300
C1332       C  0.84616353  0.30969846  0.66055751     0.23100
C1333       C  0.85024706  0.30354159  0.63265493    -0.12900
C1334       C  0.83011414  0.31032361  0.61315761     0.04500
C1335       C  0.86492188  0.29942193  0.68206095     0.26900
C1336       C  0.88640840  0.31587529  0.69154783    -0.13600
C1337       C  0.89984581  0.30929480  0.71617651     0.05000
C1338       C  0.89257622  0.28558471  0.73067259    -0.09500
C1339       C  0.87323329  0.26761519  0.71950243     0.05800
C1340       C  0.85876864  0.27492103  0.69573340    -0.13900
Br1341     Br  0.88313785  0.28545116  0.62147381    -0.06000
Br1342     Br  0.77179809  0.35222554  0.66056649    -0.00300
Br1343     Br  0.92619765  0.33416362  0.73134134     0.00100
Br1344     Br  0.82877283  0.25271398  0.68343429    -0.04300
Br1345     Br  0.83512909  0.30127485  0.57509491     0.00200
Br1346     Br  0.81897909  0.33580828  0.70631171    -0.03600
Br1347     Br  0.89575894  0.34852445  0.67185807    -0.04500
Br1348     Br  0.86650634  0.23313265  0.73705651    -0.00500
C1349       C  0.73879036  0.40475743  0.60960650     0.00900
C1350       C  0.71674315  0.41508027  0.62486531     0.03800
C1351       C  0.72074276  0.43671837  0.64342669    -0.12300
C1352       C  0.74702522  0.44753831  0.64753363     0.23100
C1353       C  0.76909088  0.43710745  0.63244775    -0.12900
C1354       C  0.76488959  0.41638481  0.61302494     0.04500
C1355       C  0.75201087  0.46924933  0.66823805     0.26900
C1356       C  0.75772643  0.49603028  0.65964531    -0.13600
C1357       C  0.76618516  0.51568316  0.67883215     0.05000
C1358       C  0.76880119  0.50873921  0.70676259    -0.09500
C1359       C  0.76172071  0.48239321  0.71555531     0.05800
C1360       C  0.75366820  0.46261031  0.69632094    -0.13900
Br1361     Br  0.80557898  0.44976969  0.64012161    -0.06000
Br1362     Br  0.68112363  0.39917589  0.62057686    -0.00300
Br1363     Br  0.77442404  0.55207222  0.66668986     0.00100
Br1364     Br  0.74716602  0.42577847  0.70819430    -0.04300
Br1365     Br  0.79567903  0.40278307  0.59280653     0.00200
Br1366     Br  0.69051617  0.45072884  0.66422049    -0.03600
Br1367     Br  0.75560756  0.50529414  0.62125560    -0.04500
Br1368     Br  0.76528380  0.47267962  0.75369923    -0.00500
C1369       C  0.87260685  0.31046663  0.29377642     0.00900
C1370       C  0.87210067  0.33379179  0.31070585     0.03800
C1371       C  0.85279045  0.35440349  0.30587964    -0.12300
C1372       C  0.83360446  0.35147586  0.28466178     0.23100
C1373       C  0.83562631  0.32949708  0.26634042    -0.12900
C1374       C  0.85513275  0.30907444  0.27080407     0.04500
C1375       C  0.80866405  0.36841008  0.28447398     0.26900
C1376       C  0.78635307  0.36016981  0.30053326    -0.13600
C1377       C  0.76180682  0.37466592  0.29929874     0.05000
C1378       C  0.75882068  0.39632078  0.28059554    -0.09500
C1379       C  0.78106060  0.40451631  0.26443525     0.05800
C1380       C  0.80632724  0.39126308  0.26723639    -0.13900
Br1381     Br  0.81052718  0.32673149  0.23598074    -0.06000
Br1382     Br  0.89567107  0.33649062  0.34225334    -0.00300
Br1383     Br  0.73232273  0.36482573  0.32345936     0.00100
Br1384     Br  0.83763582  0.40406258  0.24742139    -0.04300
Br1385     Br  0.85754733  0.27918303  0.24537842     0.00200
Br1386     Br  0.85141583  0.38611367  0.32906411    -0.03600
Br1387     Br  0.78907403  0.32813533  0.32332024    -0.04500
Br1388     Br  0.77610868  0.43186945  0.23661323    -0.00500
C1389       C  0.78802142  0.29126436  0.49485819     0.00900
C1390       C  0.80047352  0.26558399  0.49736671     0.03800
C1391       C  0.81885133  0.25641117  0.47709301    -0.12300
C1392       C  0.82414386  0.27248430  0.45370207     0.23100
C1393       C  0.81164741  0.29820624  0.45131906    -0.12900
C1394       C  0.79396638  0.30766057  0.47192100     0.04500
C1395       C  0.84223684  0.26245168  0.43116209     0.26900
C1396       C  0.87068694  0.26581678  0.43270637    -0.13600
C1397       C  0.88742680  0.25893863  0.41019215     0.05000
C1398       C  0.87581559  0.24926939  0.38544699    -0.09500
C1399       C  0.84711135  0.24596947  0.38407943     0.05800
C1400       C  0.83067546  0.25168732  0.40707181    -0.13900
Br1401     Br  0.81896794  0.32068539  0.41976076    -0.06000
Br1402     Br  0.79250748  0.24328153  0.52882125    -0.00300
Br1403     Br  0.92635026  0.26281734  0.41362480     0.00100
Br1404     Br  0.79187695  0.24548916  0.40549835    -0.04300
Br1405     Br  0.77776756  0.34321649  0.46853531     0.00200
Br1406     Br  0.83724078  0.22212810  0.48155865    -0.03600
Br1407     Br  0.88656007  0.28065210  0.46562400    -0.04500
Br1408     Br  0.82917466  0.23689897  0.35003552    -0.00500
C1409       C  0.98897828  0.29138199  0.26115855     0.00900
C1410       C  0.01126437  0.28220325  0.24531163     0.03800
C1411       C  0.03039705  0.30102089  0.23501353    -0.12300
C1412       C  0.02811068  0.32887512  0.24141330     0.23100
C1413       C  0.00491956  0.33826225  0.25534618    -0.12900
C1414       C  0.98503093  0.31972643  0.26436254     0.04500
C1415       C  0.05199715  0.34723140  0.23795009     0.26900
C1416       C  0.07367524  0.34518824  0.25672936    -0.13600
C1417       C  0.09645431  0.36221637  0.25419888     0.05000
C1418       C  0.09708408  0.38284081  0.23407916    -0.09500
C1419       C  0.07499748  0.38553984  0.21584400     0.05800
C1420       C  0.05296813  0.36710208  0.21708587    -0.13900
Br1421     Br  0.00151692  0.37639095  0.26411669    -0.06000
Br1422     Br  0.01748752  0.24390231  0.23967282    -0.00300
Br1423     Br  0.12715203  0.35586825  0.27774497     0.00100
Br1424     Br  0.02458065  0.36851148  0.18989419    -0.04300
Br1425     Br  0.95212556  0.33370643  0.28048148     0.00200
Br1426     Br  0.06115043  0.28867579  0.21387082    -0.03600
Br1427     Br  0.07208607  0.31897136  0.28626849    -0.04500
Br1428     Br  0.07431940  0.41546476  0.19039667    -0.00500
C1429       C  0.79824909  0.19408596  0.11431363     0.00900
C1430       C  0.80198933  0.21922039  0.12756266     0.03800
C1431       C  0.82413796  0.22282081  0.14549306    -0.12300
C1432       C  0.84341637  0.20183150  0.14891920     0.23100
C1433       C  0.84149980  0.17815995  0.13278058    -0.12900
C1434       C  0.81831756  0.17373114  0.11647955     0.04500
C1435       C  0.86194426  0.20240981  0.17300116     0.26900
C1436       C  0.88571827  0.21846871  0.17320637    -0.13600
C1437       C  0.90060453  0.22187683  0.19775600     0.05000
C1438       C  0.89137839  0.20961974  0.22216569    -0.09500
C1439       C  0.86885105  0.19182424  0.22128457     0.05800
C1440       C  0.85418758  0.18826120  0.19684148    -0.13900
Br1441     Br  0.86992435  0.15122772  0.13427389    -0.06000
Br1442     Br  0.77677103  0.24858656  0.12121193    -0.00300
Br1443     Br  0.93279059  0.24422590  0.19818912     0.00100
Br1444     Br  0.82252606  0.16486020  0.19637873    -0.04300
Br1445     Br  0.81260684  0.13856502  0.09985162     0.00200
Br1446     Br  0.82705020  0.25576359  0.16673594    -0.03600
Br1447     Br  0.89706147  0.23651437  0.14008986    -0.04500
Br1448     Br  0.85809404  0.17179785  0.25351276    -0.00500
C1449       C  0.25239622  0.11376962  0.69830417     0.00900
C1450       C  0.25261404  0.13614756  0.68017654     0.03800
C1451       C  0.27650931  0.15144174  0.67647987    -0.12300
C1452       C  0.30051293  0.14424068  0.69050786     0.23100
C1453       C  0.30091452  0.12056486  0.70684445    -0.12900
C1454       C  0.27697732  0.10505667  0.71034021     0.04500
C1455       C  0.32420973  0.16315415  0.69001777     0.26900
C1456       C  0.34429387  0.16114627  0.66955095    -0.13600
C1457       C  0.36510264  0.18087103  0.66777923     0.05000
C1458       C  0.36589897  0.20285519  0.68644918    -0.09500
C1459       C  0.34580286  0.20459004  0.70706706     0.05800
C1460       C  0.32514351  0.18482359  0.70883292    -0.13900
Br1461     Br  0.33386470  0.11039677  0.72564106    -0.06000
Br1462     Br  0.22045635  0.14532258  0.65940696    -0.00300
Br1463     Br  0.39086457  0.17903002  0.63804054     0.00100
Br1464     Br  0.29696777  0.18807570  0.73620115    -0.04300
Br1465     Br  0.27765048  0.07236271  0.73209735     0.00200
Br1466     Br  0.27609939  0.18324678  0.65329234    -0.03600
Br1467     Br  0.34218764  0.13226319  0.64293221    -0.04500
Br1468     Br  0.34602790  0.23410021  0.73296670    -0.00500
C1469       C  0.19892620  0.23264741  0.90089778     0.00900
C1470       C  0.22167619  0.21712262  0.89331696     0.03800
C1471       C  0.21820264  0.19393338  0.87682529    -0.12300
C1472       C  0.19199305  0.18675318  0.86740930     0.23100
C1473       C  0.16901805  0.20061736  0.87763832    -0.12900
C1474       C  0.17256675  0.22305779  0.89512602     0.04500
C1475       C  0.18892852  0.16689268  0.84465109     0.26900
C1476       C  0.19583424  0.17479063  0.81786020    -0.13600
C1477       C  0.19340178  0.15627370  0.79605482     0.05000
C1478       C  0.18085155  0.13058303  0.80014603    -0.09500
C1479       C  0.17405890  0.12270371  0.82737859     0.05800
C1480       C  0.17915416  0.14048298  0.84951769    -0.13900
Br1481     Br  0.13287929  0.19041125  0.86600822    -0.06000
Br1482     Br  0.25756256  0.22868365  0.90429106    -0.00300
Br1483     Br  0.20980372  0.16603670  0.76145838     0.00100
Br1484     Br  0.17278161  0.12893520  0.88678631    -0.04300
Br1485     Br  0.14157168  0.24041490  0.91176268     0.00200
Br1486     Br  0.24942597  0.17318036  0.86539452    -0.03600
Br1487     Br  0.20799972  0.21156092  0.81090603    -0.04500
Br1488     Br  0.15661179  0.08841178  0.83535644    -0.00500
C1489       C  0.98594905  0.21313359  0.78624602     0.00900
C1490       C  0.98628388  0.20758741  0.75790581     0.03800
C1491       C  0.00561595  0.18931077  0.74695557    -0.12300
C1492       C  0.02475080  0.17648243  0.76427711     0.23100
C1493       C  0.02408304  0.18175052  0.79267306    -0.12900
C1494       C  0.00468188  0.19981357  0.80362138     0.04500
C1495       C  0.04645376  0.15843819  0.75280181     0.26900
C1496       C  0.04397792  0.12991397  0.75408312    -0.13600
C1497       C  0.06609709  0.11301568  0.74672105     0.05000
C1498       C  0.09075655  0.12449956  0.73719622    -0.09500
C1499       C  0.09232970  0.15320306  0.73416114     0.05800
C1500       C  0.07048637  0.16994532  0.74233083    -0.13900
Br1501     Br  0.05025856  0.16454704  0.81656651    -0.06000
Br1502     Br  0.95948067  0.22415625  0.73434496    -0.00300
Br1503     Br  0.06220454  0.07409166  0.74927507     0.00100
Br1504     Br  0.07387418  0.20905236  0.74054490    -0.04300
Br1505     Br  0.00432067  0.20681095  0.84253065     0.00200
Br1506     Br  0.00598816  0.18171240  0.70823673    -0.03600
Br1507     Br  0.01015903  0.11424364  0.76636417    -0.04500
Br1508     Br  0.12480937  0.17066793  0.72062591    -0.00500
C1509       C  0.21618913  0.01137007  0.77746210     0.00900
C1510       C  0.22879993  0.02008870  0.80191654     0.03800
C1511       C  0.23843063  0.00078688  0.82106183    -0.12300
C1512       C  0.23557395  0.97274344  0.81573907     0.23100
C1513       C  0.22465255  0.96416570  0.79041959    -0.12900
C1514       C  0.21518501  0.98342494  0.77130707     0.04500
C1515       C  0.24153377  0.95222961  0.83748782     0.26900
C1516       C  0.26648692  0.93811690  0.83799054    -0.13600
C1517       C  0.27032598  0.91617394  0.85624527     0.05000
C1518       C  0.24922831  0.90822123  0.87414937    -0.09500
C1519       C  0.22487630  0.92350936  0.87474705     0.05800
C1520       C  0.22117316  0.94548909  0.85660515    -0.13900
Br1521     Br  0.22118403  0.92590356  0.78254368    -0.06000
Br1522     Br  0.23269794  0.05839724  0.80913983    -0.00300
Br1523     Br  0.30451880  0.89691915  0.85675111     0.00100
Br1524     Br  0.18755909  0.96578587  0.85698577    -0.04300
Br1525     Br  0.19989277  0.97151509  0.73692474     0.00200
Br1526     Br  0.25441300  0.01246968  0.85518548    -0.03600
Br1527     Br  0.29506345  0.94856275  0.81315649    -0.04500
Br1528     Br  0.19520124  0.91293857  0.89829253    -0.00500
C1529       C  0.30089859  0.19867393  0.36875290     0.00900
C1530       C  0.29629612  0.20026799  0.34013522     0.03800
C1531       C  0.31712523  0.20880060  0.32261740    -0.12300
C1532       C  0.34340929  0.21341533  0.33299096     0.23100
C1533       C  0.34836079  0.21170001  0.36132898    -0.12900
C1534       C  0.32708315  0.20453770  0.37930553     0.04500
C1535       C  0.36588251  0.21643962  0.31312141     0.26900
C1536       C  0.37667633  0.19277504  0.30105501    -0.13600
C1537       C  0.39046960  0.19446587  0.27593530     0.05000
C1538       C  0.39403590  0.21999165  0.26333172    -0.09500
C1539       C  0.38628577  0.24389576  0.27717748     0.05800
C1540       C  0.37196927  0.24212045  0.30200744    -0.13900
Br1541     Br  0.38423821  0.21954693  0.37520333    -0.06000
Br1542     Br  0.26249628  0.18806535  0.32385120    -0.00300
Br1543     Br  0.40142031  0.16156537  0.25746927     0.00100
Br1544     Br  0.35872893  0.27453508  0.31964052    -0.04300
Br1545     Br  0.33409564  0.20307543  0.41812856     0.00200
Br1546     Br  0.30973653  0.21408706  0.28402033    -0.03600
Br1547     Br  0.37002714  0.15782165  0.31777228    -0.04500
Br1548     Br  0.39468340  0.27896191  0.26155954    -0.00500
C1549       C  0.28179241  0.00231345  0.28374800     0.00900
C1550       C  0.27453249  0.99510132  0.31075501     0.03800
C1551       C  0.26512586  0.01506398  0.32935817    -0.12300
C1552       C  0.26324319  0.04258987  0.32134738     0.23100
C1553       C  0.27023992  0.04977440  0.29425538    -0.12900
C1554       C  0.27968601  0.02983130  0.27566081     0.04500
C1555       C  0.25598522  0.06420238  0.34189819     0.26900
C1556       C  0.22913844  0.07423119  0.34401496    -0.13600
C1557       C  0.22286000  0.09526319  0.36277583     0.05000
C1558       C  0.24338961  0.10686124  0.37932678    -0.09500
C1559       C  0.27003461  0.09609564  0.37791864     0.05800
C1560       C  0.27630213  0.07512476  0.35916213    -0.13900
Br1561     Br  0.26753037  0.08724674  0.28291990    -0.06000
Br1562     Br  0.27793946  0.95781428  0.32238546    -0.00300
Br1563     Br  0.18588762  0.10771497  0.36662441     0.00100
Br1564     Br  0.31327303  0.06236376  0.35583994    -0.04300
Br1565     Br  0.29186360  0.04068448  0.23975627     0.00200
Br1566     Br  0.25509070  0.00487756  0.36609835    -0.03600
Br1567     Br  0.20121724  0.05990623  0.32032983    -0.04500
Br1568     Br  0.29860336  0.11090068  0.40058491    -0.00500
C1569       C  0.37846771  0.26566462  0.60034280     0.00900
C1570       C  0.38871572  0.25205902  0.57697174     0.03800
C1571       C  0.37106966  0.24435002  0.55543674    -0.12300
C1572       C  0.34305546  0.25041443  0.55677519     0.23100
C1573       C  0.33305721  0.26542304  0.57912547    -0.12900
C1574       C  0.35057261  0.27332346  0.60064706     0.04500
C1575       C  0.32386207  0.24061819  0.53506146     0.26900
C1576       C  0.32092368  0.25501590  0.51029803    -0.13600
C1577       C  0.30304614  0.24542180  0.48972971     0.05000
C1578       C  0.28616675  0.22265219  0.49453033    -0.09500
C1579       C  0.28970500  0.20795887  0.51917218     0.05800
C1580       C  0.30842529  0.21683514  0.53925396    -0.13900
Br1581     Br  0.29475277  0.27409520  0.58064106    -0.06000
Br1582     Br  0.42719721  0.24472200  0.57379182    -0.00300
Br1583     Br  0.30437287  0.26169772  0.45419352     0.00100
Br1584     Br  0.31323607  0.19625419  0.57258429    -0.04300
Br1585     Br  0.33506651  0.29350328  0.63076119     0.00200
Br1586     Br  0.38506609  0.22457882  0.52439994    -0.03600
Br1587     Br  0.34138129  0.28808335  0.50484314    -0.04500
Br1588     Br  0.27048132  0.17432543  0.52471887    -0.00500
C1589       C  0.00547785  0.22194885  0.35326840     0.00900
C1590       C  0.02559205  0.24182632  0.35822345     0.03800
C1591       C  0.05059873  0.23453516  0.37045363    -0.12300
C1592       C  0.05598808  0.20719517  0.37734348     0.23100
C1593       C  0.03551168  0.18749813  0.37340843    -0.12900
C1594       C  0.01032965  0.19484713  0.36148383     0.04500
C1595       C  0.08383596  0.19900520  0.38671152     0.26900
C1596       C  0.10352428  0.19137224  0.36728870    -0.13600
C1597       C  0.13062714  0.18622581  0.37539351     0.05000
C1598       C  0.13856024  0.18928838  0.40333474    -0.09500
C1599       C  0.11808968  0.19485896  0.42299565     0.05800
C1600       C  0.09092540  0.19956791  0.41466182    -0.13900
Br1601     Br  0.04246285  0.15034559  0.38387685    -0.06000
Br1602     Br  0.01965692  0.27880254  0.34650893    -0.00300
Br1603     Br  0.15653117  0.17748875  0.34689939     0.00100
Br1604     Br  0.06314069  0.20694964  0.44144152    -0.04300
Br1605     Br  0.98243505  0.16778589  0.35641808     0.00200
Br1606     Br  0.07788124  0.26192282  0.37713810    -0.03600
Br1607     Br  0.09330308  0.18901509  0.32909999    -0.04500
Br1608     Br  0.12670803  0.19539915  0.46161431    -0.00500
C1609       C  0.17189246  0.08706512  0.63176172     0.00900
C1610       C  0.14957373  0.09921783  0.61830406     0.03800
C1611       C  0.15170495  0.10696773  0.59052233    -0.12300
C1612       C  0.17675279  0.10434985  0.57665287     0.23100
C1613       C  0.19855173  0.09089151  0.58966257    -0.12900
C1614       C  0.19596506  0.08181153  0.61688213     0.04500
C1615       C  0.18195328  0.11938119  0.55058758     0.26900
C1616       C  0.18541917  0.10546251  0.52553290    -0.13600
C1617       C  0.19595098  0.11921028  0.50245186     0.05000
C1618       C  0.20206920  0.14716680  0.50402751    -0.09500
C1619       C  0.19598622  0.16159269  0.52833400     0.05800
C1620       C  0.18657721  0.14766001  0.55163313    -0.13900
Br1621     Br  0.23293505  0.08695480  0.57093599    -0.06000
Br1622     Br  0.11652454  0.10623045  0.63829444    -0.00300
Br1623     Br  0.20082536  0.10014586  0.46829804     0.00100
Br1624     Br  0.18103446  0.16733270  0.58545509    -0.04300
Br1625     Br  0.22676301  0.06473074  0.63438685     0.00200
Br1626     Br  0.12081534  0.12227342  0.57165127    -0.03600
Br1627     Br  0.17553812  0.06765090  0.52296889    -0.04500
Br1628     Br  0.20124865  0.20049501  0.53043701    -0.00500
C1629       C  0.18852161  0.38155060  0.29901941     0.00900
C1630       C  0.20581145  0.35873605  0.29498908     0.03800
C1631       C  0.21077037  0.34051050  0.31655386    -0.12300
C1632       C  0.19799840  0.34428123  0.34195922     0.23100
C1633       C  0.18171012  0.36724785  0.34659242    -0.12900
C1634       C  0.17740933  0.38623746  0.32546526     0.04500
C1635       C  0.19904287  0.32208852  0.36228695     0.26900
C1636       C  0.17887945  0.30189734  0.36153066    -0.13600
C1637       C  0.18222006  0.27799486  0.37680155     0.05000
C1638       C  0.20569793  0.27415935  0.39319878    -0.09500
C1639       C  0.22428683  0.29586071  0.39608712     0.05800
C1640       C  0.22129423  0.31954596  0.38020114    -0.13900
Br1641     Br  0.16343900  0.37115988  0.38136551    -0.06000
Br1642     Br  0.22274790  0.35120740  0.26011381    -0.00300
Br1643     Br  0.15400251  0.25101338  0.37517490     0.00100
Br1644     Br  0.24850400  0.34781702  0.38140643    -0.04300
Br1645     Br  0.15419666  0.41701800  0.33307632     0.00200
Br1646     Br  0.23384908  0.30908988  0.31100999    -0.03600
Br1647     Br  0.14729688  0.30653182  0.33828503    -0.04500
Br1648     Br  0.25451897  0.29322397  0.42057286    -0.00500
C1649       C  0.22200593  0.59975075  0.71355001     0.00900
C1650       C  0.21238905  0.61854124  0.73302035     0.03800
C1651       C  0.18877040  0.63382767  0.72760276    -0.12300
C1652       C  0.17457364  0.63021812  0.70273240     0.23100
C1653       C  0.18243692  0.60921948  0.68474968    -0.12900
C1654       C  0.20627250  0.59413256  0.69003114     0.04500
C1655       C  0.15460398  0.65118526  0.69370190     0.26900
C1656       C  0.12747917  0.65098717  0.70311231    -0.13600
C1657       C  0.10980688  0.67267628  0.69647324     0.05000
C1658       C  0.11925632  0.69451898  0.68036335    -0.09500
C1659       C  0.14629241  0.69456361  0.67087690     0.05800
C1660       C  0.16372928  0.67281536  0.67712988    -0.13900
Br1661     Br  0.16138207  0.60243527  0.65210418    -0.06000
Br1662     Br  0.23212882  0.62383051  0.76676878    -0.00300
Br1663     Br  0.07345068  0.67362260  0.71119612     0.00100
Br1664     Br  0.20054128  0.67312480  0.66351143    -0.04300
Br1665     Br  0.21866037  0.56753088  0.66385818     0.00200
Br1666     Br  0.17682506  0.66098856  0.75342077    -0.03600
Br1667     Br  0.11499301  0.62137848  0.72567530    -0.04500
Br1668     Br  0.15991775  0.72507395  0.65011636    -0.00500
C1669       C  0.11367915  0.76055657  0.59270524     0.00900
C1670       C  0.11243828  0.73641572  0.57691306     0.03800
C1671       C  0.13249038  0.73094150  0.55698346    -0.12300
C1672       C  0.15329118  0.74993129  0.55164489     0.23100
C1673       C  0.15342720  0.77486556  0.56584313    -0.12900
C1674       C  0.13416753  0.77992460  0.58668935     0.04500
C1675       C  0.17513711  0.74326231  0.53138132     0.26900
C1676       C  0.19997351  0.73178353  0.54022071    -0.13600
C1677       C  0.21910785  0.72214020  0.52091551     0.05000
C1678       C  0.21411777  0.72507749  0.49249524    -0.09500
C1679       C  0.19016471  0.73858149  0.48389409     0.05800
C1680       C  0.17045186  0.74680503  0.50313895    -0.13900
Br1681     Br  0.18032036  0.80193268  0.55676654    -0.06000
Br1682     Br  0.08462942  0.70951341  0.58350977    -0.00300
Br1683     Br  0.25079900  0.70276396  0.53372438     0.00100
Br1684     Br  0.13627642  0.76173572  0.49078738    -0.04300
Br1685     Br  0.13615713  0.81351749  0.60707162     0.00200
Br1686     Br  0.13235435  0.69668505  0.53766955    -0.03600
Br1687     Br  0.20713853  0.72821429  0.57894103    -0.04500
Br1688     Br  0.18450953  0.74669734  0.44568480    -0.00500
C1689       C  0.12552524  0.99593757  0.70995152     0.00900
C1690       C  0.11261695  0.97983366  0.73015661     0.03800
C1691       C  0.10144564  0.95424296  0.72319171    -0.12300
C1692       C  0.10376375  0.94406830  0.69627386     0.23100
C1693       C  0.11533556  0.96062730  0.67584859    -0.12900
C1694       C  0.12581822  0.98651489  0.68253975     0.04500
C1695       C  0.09736545  0.91485466  0.69041732     0.26900
C1696       C  0.11677238  0.89478360  0.69698570    -0.13600
C1697       C  0.11089881  0.86702229  0.69285559     0.05000
C1698       C  0.08548405  0.85891326  0.68186977    -0.09500
C1699       C  0.06635437  0.87908656  0.67451382     0.05800
C1700       C  0.07226536  0.90693463  0.67877934    -0.13900
Br1701     Br  0.11804169  0.94713934  0.63885064    -0.06000
Br1702     Br  0.11248130  0.99119612  0.76797972    -0.00300
Br1703     Br  0.13741373  0.84028527  0.70402585     0.00100
Br1704     Br  0.04597877  0.93429964  0.66889573    -0.04300
Br1705     Br  0.14045698  0.00902058  0.65377390     0.00200
Br1706     Br  0.08407173  0.93218576  0.75078207    -0.03600
Br1707     Br  0.15149250  0.90555648  0.71216160    -0.04500
Br1708     Br  0.03239856  0.86856649  0.65770296    -0.00500
C1709       C  0.88771934  0.62482800  0.75041809     0.00900
C1710       C  0.91350036  0.61352364  0.74455973     0.03800
C1711       C  0.93554498  0.63053269  0.73744582    -0.12300
C1712       C  0.93175375  0.65882293  0.73481908     0.23100
C1713       C  0.90609523  0.67017430  0.74049519    -0.12900
C1714       C  0.88429720  0.65340918  0.74862832     0.04500
C1715       C  0.95413572  0.67650034  0.72432733     0.26900
C1716       C  0.96960169  0.69267447  0.74242250    -0.13600
C1717       C  0.98979698  0.71037745  0.73220332     0.05000
C1718       C  0.99508177  0.71161535  0.70377222    -0.09500
C1719       C  0.97965828  0.69516448  0.68571493     0.05800
C1720       C  0.95913761  0.67794346  0.69595229    -0.13900
Br1721     Br  0.90050582  0.70875799  0.73553916    -0.06000
Br1722     Br  0.91868098  0.57467771  0.74582338    -0.00300
Br1723     Br  0.01059860  0.73234537  0.75741274     0.00100
Br1724     Br  0.93698526  0.65694595  0.67098940    -0.04300
Br1725     Br  0.84927555  0.67006226  0.75470168     0.00200
Br1726     Br  0.97102108  0.61520252  0.73074542    -0.03600
Br1727     Br  0.96284909  0.69056264  0.78127234    -0.04500
Br1728     Br  0.98516974  0.69724810  0.64660473    -0.00500
C1729       C  0.08955329  0.78055803  0.76203687     0.00900
C1730       C  0.07916065  0.80045493  0.77998804     0.03800
C1731       C  0.09357981  0.80705778  0.80404550    -0.12300
C1732       C  0.11852268  0.79411586  0.80980773     0.23100
C1733       C  0.12751760  0.77255942  0.79317325    -0.12900
C1734       C  0.11267490  0.76536975  0.76972343     0.04500
C1735       C  0.13712584  0.80512440  0.83096599     0.26900
C1736       C  0.15360906  0.82767727  0.82446590    -0.13600
C1737       C  0.17446676  0.83568083  0.84241085     0.05000
C1738       C  0.17937172  0.82079038  0.86649989    -0.09500
C1739       C  0.16210143  0.79907549  0.87372225     0.05800
C1740       C  0.14082463  0.79134423  0.85600319    -0.13900
Br1741     Br  0.16162472  0.75457210  0.80098844    -0.06000
Br1742     Br  0.04682146  0.82057113  0.77043350    -0.00300
Br1743     Br  0.19734475  0.86619131  0.83329766     0.00100
Br1744     Br  0.11779198  0.76085622  0.86494008    -0.04300
Br1745     Br  0.12447110  0.73490928  0.74795144     0.00200
Br1746     Br  0.08053413  0.83533644  0.82797972    -0.03600
Br1747     Br  0.14913369  0.84621553  0.78985507    -0.04500
Br1748     Br  0.16828364  0.77932075  0.90728319    -0.00500
C1749       C  0.85783834  0.01348819  0.28643746     0.00900
C1750       C  0.84256417  0.03773926  0.28809411     0.03800
C1751       C  0.85551938  0.06250929  0.29426083    -0.12300
C1752       C  0.88369739  0.06314137  0.29975493     0.23100
C1753       C  0.89879158  0.03874759  0.29912051    -0.12900
C1754       C  0.88600461  0.01408639  0.29185041     0.04500
C1755       C  0.89753149  0.08986123  0.30349881     0.26900
C1756       C  0.91152812  0.10166861  0.28130699    -0.13600
C1757       C  0.92127069  0.12849832  0.28318163     0.05000
C1758       C  0.91566724  0.14428948  0.30665983    -0.09500
C1759       C  0.90270432  0.13214625  0.32930986     0.05800
C1760       C  0.89439387  0.10472408  0.32801773    -0.13900
Br1761     Br  0.93711571  0.03939161  0.30756223    -0.06000
Br1762     Br  0.80412002  0.03763150  0.27989265    -0.00300
Br1763     Br  0.94033024  0.14409410  0.25242742     0.00100
Br1764     Br  0.87790732  0.08764755  0.35941142    -0.04300
Br1765     Br  0.90706114  0.98117165  0.28884029     0.00200
Br1766     Br  0.83489819  0.09595147  0.29346527    -0.03600
Br1767     Br  0.91543770  0.08180624  0.24740868    -0.04500
Br1768     Br  0.89589837  0.15332102  0.36183828    -0.00500
C1769       C  0.77661025  0.77646107  0.09014549     0.00900
C1770       C  0.75969280  0.78576213  0.11145808     0.03800
C1771       C  0.76735007  0.80850351  0.12724729    -0.12300
C1772       C  0.79127135  0.82305318  0.12088692     0.23100
C1773       C  0.80664013  0.81549233  0.09776487    -0.12900
C1774       C  0.79954198  0.79205111  0.08262129     0.04500
C1775       C  0.80206869  0.84339774  0.14083632     0.26900
C1776       C  0.79531278  0.87123013  0.13895205    -0.13600
C1777       C  0.80191987  0.88911937  0.16062413     0.05000
C1778       C  0.81556679  0.87922155  0.18399323    -0.09500
C1779       C  0.82450501  0.85199747  0.18463119     0.05800
C1780       C  0.81793108  0.83424307  0.16306513    -0.13900
Br1781     Br  0.83870254  0.83604655  0.08845397    -0.06000
Br1782     Br  0.72612878  0.76696009  0.11917805    -0.00300
Br1783     Br  0.79110434  0.92676377  0.15906961     0.00100
Br1784     Br  0.83074536  0.79722717  0.16389064    -0.04300
Br1785     Br  0.82273163  0.77993059  0.05329519     0.00200
Br1786     Br  0.74647563  0.81815455  0.15925021    -0.03600
Br1787     Br  0.77740276  0.88477815  0.10663322    -0.04500
Br1788     Br  0.84610779  0.83894811  0.21497541    -0.00500
C1789       C  0.90182646  0.89188930  0.25034309     0.00900
C1790       C  0.91198306  0.87644853  0.27240787     0.03800
C1791       C  0.93250303  0.85699687  0.26793242    -0.12300
C1792       C  0.94288420  0.85304037  0.24134687     0.23100
C1793       C  0.93377864  0.86953570  0.21960417    -0.12900
C1794       C  0.91358638  0.88921152  0.22415186     0.04500
C1795       C  0.96281059  0.83114277  0.23559860     0.26900
C1796       C  0.99080995  0.83692505  0.23601061    -0.13600
C1797       C  0.00961772  0.81758569  0.22635669     0.05000
C1798       C  0.00039477  0.79228212  0.21592163    -0.09500
C1799       C  0.97220589  0.78640116  0.21622102     0.05800
C1800       C  0.95358291  0.80567623  0.22629368    -0.13900
Br1801     Br  0.94761198  0.86362214  0.18307643    -0.06000
Br1802     Br  0.89734891  0.88193504  0.30863847    -0.00300
Br1803     Br  0.04789041  0.82647616  0.22720447     0.00100
Br1804     Br  0.91503881  0.79808435  0.22556433    -0.04300
Br1805     Br  0.90071664  0.91085010  0.19381972     0.00200
Br1806     Br  0.94527061  0.83471800  0.29774925    -0.03600
Br1807     Br  0.00299021  0.87219302  0.24838120    -0.04500
Br1808     Br  0.95826548  0.75350031  0.19984358    -0.00500
C1809       C  0.78356928  0.00289006  0.20783391     0.00900
C1810       C  0.80063969  0.02404154  0.19850044     0.03800
C1811       C  0.79002291  0.04487200  0.18192428    -0.12300
C1812       C  0.76241819  0.04441214  0.17412840     0.23100
C1813       C  0.74529862  0.02343137  0.18364774    -0.12900
C1814       C  0.75581890  0.00282178  0.20069286     0.04500
C1815       C  0.75168781  0.06568997  0.15536946     0.26900
C1816       C  0.73805751  0.08848771  0.16596726    -0.13600
C1817       C  0.72945986  0.10954307  0.14836581     0.05000
C1818       C  0.73397990  0.10764921  0.11965523    -0.09500
C1819       C  0.74674994  0.08398947  0.10913155     0.05800
C1820       C  0.75607464  0.06351037  0.12699644    -0.13900
Br1821     Br  0.70755654  0.02282334  0.17291270    -0.06000
Br1822     Br  0.83856291  0.02505193  0.20879875    -0.00300
Br1823     Br  0.71375983  0.14160330  0.16484141     0.00100
Br1824     Br  0.77620490  0.03284270  0.11287546    -0.04300
Br1825     Br  0.73257943  0.97393301  0.21350499     0.00200
Br1826     Br  0.81328917  0.07414689  0.16979120    -0.03600
Br1827     Br  0.73267800  0.09140575  0.20506932    -0.04500
Br1828     Br  0.75131053  0.07880991  0.07016526    -0.00500
C1829       C  0.62512568  0.81022978  0.31179905     0.00900
C1830       C  0.61622539  0.83525382  0.30084706     0.03800
C1831       C  0.63531920  0.85590592  0.29477523    -0.12300
C1832       C  0.66327334  0.85165643  0.29989872     0.23100
C1833       C  0.67183194  0.82729259  0.31243224    -0.12900
C1834       C  0.65293922  0.80663222  0.31814635     0.04500
C1835       C  0.68437974  0.87109176  0.28997733     0.26900
C1836       C  0.69946672  0.86436274  0.26641823    -0.13600
C1837       C  0.72400645  0.87793827  0.26066443     0.05000
C1838       C  0.73270619  0.89975061  0.27733028    -0.09500
C1839       C  0.71622550  0.90815207  0.29946782     0.05800
C1840       C  0.69229760  0.89362123  0.30597363    -0.13900
Br1841     Br  0.70989499  0.82178005  0.32080620    -0.06000
Br1842     Br  0.57827549  0.84045755  0.29229180    -0.00300
Br1843     Br  0.74627495  0.86547260  0.23069756     0.00100
Br1844     Br  0.67116137  0.90353063  0.33766327    -0.04300
Br1845     Br  0.66554129  0.77313608  0.33446780     0.00200
Br1846     Br  0.62350671  0.88948032  0.27829412    -0.03600
Br1847     Br  0.68689078  0.83552217  0.24272214    -0.04500
Br1848     Br  0.72781814  0.93767563  0.32274556    -0.00500
C1849       C  0.85457442  0.81686536  0.57241580     0.00900
C1850       C  0.86826202  0.83855154  0.58537704     0.03800
C1851       C  0.89598493  0.83599925  0.59241099    -0.12300
C1852       C  0.91031511  0.81199289  0.58604154     0.23100
C1853       C  0.89734834  0.79146821  0.57070785    -0.12900
C1854       C  0.86941020  0.79352056  0.56451695     0.04500
C1855       C  0.93638932  0.80578566  0.60039233     0.26900
C1856       C  0.96190708  0.80991090  0.58784106    -0.13600
C1857       C  0.98607621  0.80236559  0.60166588     0.05000
C1858       C  0.98485527  0.79188794  0.62850843    -0.09500
C1859       C  0.95930865  0.78863818  0.64129224     0.05800
C1860       C  0.93522383  0.79485451  0.62703519    -0.13900
Br1861     Br  0.91756983  0.75958898  0.56001499    -0.06000
Br1862     Br  0.84881594  0.87146796  0.59415036    -0.00300
Br1863     Br  0.02092797  0.80646772  0.58414869     0.00100
Br1864     Br  0.90027779  0.78763196  0.64370949    -0.04300
Br1865     Br  0.85100924  0.76258984  0.54863691     0.00200
Br1866     Br  0.91400977  0.86451203  0.61253001    -0.03600
Br1867     Br  0.96360681  0.82594769  0.55191121    -0.04500
Br1868     Br  0.95686634  0.77522272  0.67830192    -0.00500
C1869       C  0.81574399  0.90761678  0.34961196     0.00900
C1870       C  0.80445154  0.88224731  0.35688761     0.03800
C1871       C  0.79962721  0.87612067  0.38451056    -0.12300
C1872       C  0.80672558  0.89495291  0.40502266     0.23100
C1873       C  0.81986830  0.91940601  0.39797483    -0.12900
C1874       C  0.82422105  0.92583473  0.37021033     0.04500
C1875       C  0.79977148  0.88875359  0.43383755     0.26900
C1876       C  0.77321011  0.89369751  0.44337960    -0.13600
C1877       C  0.76474194  0.88291295  0.46867565     0.05000
C1878       C  0.78313680  0.86764379  0.48479198    -0.09500
C1879       C  0.81033024  0.86447926  0.47593569     0.05800
C1880       C  0.81852483  0.87483180  0.45043624    -0.13900
Br1881     Br  0.83146979  0.94402560  0.42639980    -0.06000
Br1882     Br  0.79423358  0.85610845  0.32921505    -0.00300
Br1883     Br  0.72717384  0.88674835  0.47945999     0.00100
Br1884     Br  0.85507424  0.86874367  0.43739504    -0.04300
Br1885     Br  0.84247121  0.95910006  0.36031004     0.00200
Br1886     Br  0.78232684  0.84221425  0.39431966    -0.03600
Br1887     Br  0.74807076  0.91391533  0.42077201    -0.04500
Br1888     Br  0.83665209  0.84582087  0.49839306    -0.00500
C1889       C  0.68800181  0.81627188  0.61581617     0.00900
C1890       C  0.68817554  0.79238279  0.63183363     0.03800
C1891       C  0.66698376  0.78723293  0.65027614    -0.12300
C1892       C  0.64488348  0.80529042  0.65195322     0.23100
C1893       C  0.64336561  0.82782580  0.63425945    -0.12900
C1894       C  0.66519803  0.83372972  0.61661898     0.04500
C1895       C  0.62624464  0.80317431  0.67554915     0.26900
C1896       C  0.60503658  0.78389713  0.67587737    -0.13600
C1897       C  0.59103261  0.77859231  0.70046078     0.05000
C1898       C  0.59688757  0.79409743  0.72399048    -0.09500
C1899       C  0.61662606  0.81486894  0.72286051     0.05800
C1900       C  0.63187479  0.81880247  0.69901151    -0.13900
Br1901     Br  0.61204262  0.85138687  0.63576162    -0.06000
Br1902     Br  0.71711689  0.76624542  0.62871748    -0.00300
Br1903     Br  0.56597406  0.74855376  0.70266395     0.00100
Br1904     Br  0.66159324  0.84461767  0.69894351    -0.04300
Br1905     Br  0.66488643  0.86715911  0.59593739     0.00200
Br1906     Br  0.66924709  0.75645703  0.67480629    -0.03600
Br1907     Br  0.59573872  0.76467826  0.64277599    -0.04500
Br1908     Br  0.62297329  0.83812212  0.75400017    -0.00500
C1909       C  0.75728914  0.90385852  0.61289693     0.00900
C1910       C  0.75555620  0.90171045  0.64181135     0.03800
C1911       C  0.74989516  0.92480253  0.65787030    -0.12300
C1912       C  0.74567026  0.95020689  0.64536583     0.23100
C1913       C  0.74915814  0.95286955  0.61683992    -0.12900
C1914       C  0.75472051  0.92973980  0.60060095     0.04500
C1915       C  0.73349538  0.97262956  0.66182049     0.26900
C1916       C  0.70496646  0.97375105  0.66460405    -0.13600
C1917       C  0.69297768  0.99216881  0.68301965     0.05000
C1918       C  0.70942115  0.01002336  0.69845167    -0.09500
C1919       C  0.73787174  0.00982521  0.69476479     0.05800
C1920       C  0.74993729  0.99085949  0.67681641    -0.13900
Br1921     Br  0.74540330  0.98818205  0.60016770    -0.06000
Br1922     Br  0.75786676  0.86690894  0.65986220    -0.00300
Br1923     Br  0.65407860  0.99143992  0.68844945     0.00100
Br1924     Br  0.78894748  0.98900359  0.67364184    -0.04300
Br1925     Br  0.75851299  0.93348578  0.56148929     0.00200
Br1926     Br  0.74607179  0.92155173  0.69715351    -0.03600
Br1927     Br  0.68236207  0.94888074  0.64408460    -0.04500
Br1928     Br  0.76015715  0.03605668  0.71375631    -0.00500
C1929       C  0.78145268  0.73934318  0.60078494     0.00900
C1930       C  0.79659249  0.73801147  0.62545459     0.03800
C1931       C  0.79923063  0.71328423  0.63950784    -0.12300
C1932       C  0.78672152  0.68965386  0.62925559     0.23100
C1933       C  0.77212563  0.69063535  0.60439428    -0.12900
C1934       C  0.76985781  0.71537548  0.58989467     0.04500
C1935       C  0.78805789  0.66454110  0.64604043     0.26900
C1936       C  0.81144460  0.64801639  0.64514364    -0.13600
C1937       C  0.81641758  0.62900710  0.66612604     0.05000
C1938       C  0.79808970  0.62667140  0.68822500    -0.09500
C1939       C  0.77373855  0.64191874  0.68801812     0.05800
C1940       C  0.76859662  0.66052854  0.66675212    -0.13900
Br1941     Br  0.75423998  0.65836436  0.59108784    -0.06000
Br1942     Br  0.81461928  0.76977542  0.64016011    -0.00300
Br1943     Br  0.84981124  0.60834924  0.66596459     0.00100
Br1944     Br  0.73570824  0.68202070  0.66675360    -0.04300
Br1945     Br  0.74974064  0.71654474  0.55594935     0.00200
Br1946     Br  0.81936163  0.71182320  0.67360424    -0.03600
Br1947     Br  0.83769201  0.65314098  0.61630796    -0.04500
Br1948     Br  0.74757139  0.63806635  0.71706613    -0.00500
C1949       C  0.60907807  0.74325902  0.39674208     0.00900
C1950       C  0.60282366  0.76507395  0.41472267     0.03800
C1951       C  0.61967929  0.77063134  0.43754906    -0.12300
C1952       C  0.64297491  0.75469856  0.44267626     0.23100
C1953       C  0.64775869  0.73151639  0.42642241    -0.12900
C1954       C  0.63102727  0.72582846  0.40356924     0.04500
C1955       C  0.66433676  0.76440183  0.46234623     0.26900
C1956       C  0.68768137  0.77764819  0.45203232    -0.13600
C1957       C  0.70770377  0.78774731  0.47004524     0.05000
C1958       C  0.70457425  0.78497196  0.49857217    -0.09500
C1959       C  0.68164287  0.77124021  0.50900904     0.05800
C1960       C  0.66154678  0.76096681  0.49096539    -0.13900
Br1961     Br  0.67830762  0.70834170  0.43488579    -0.06000
Br1962     Br  0.57297960  0.78952577  0.40718733    -0.00300
Br1963     Br  0.73968603  0.80533822  0.45561506     0.00100
Br1964     Br  0.63008434  0.74254303  0.50542007    -0.04300
Br1965     Br  0.63870949  0.69414361  0.38153997     0.00200
Br1966     Br  0.61183736  0.80126277  0.46097806    -0.03600
Br1967     Br  0.69200137  0.78254357  0.41302680    -0.04500
Br1968     Br  0.67777012  0.76696090  0.54808855    -0.00500
loop_ 
_geom_bond_atom_site_label_1 
_geom_bond_atom_site_label_2 
_geom_bond_distance 
_geom_bond_site_symmetry_2 
_ccdc_geom_bond_type 
O1           C16   1.260       .  A
O1           Al9   1.895       .  S
C2           O12   1.264       .  A
C2            O3   1.270       .  A
C2         C1889   1.476       .  S
O3           Al5   1.927       .  S
O4            C6   1.252       .  A
O4           Al5   1.869       .  S
Al5          O13   1.900       .  S
Al5          O15   1.911       .  S
Al5          O14   1.782       .  S
C6           O19   1.258       .  A
C6         C1929   1.482       .  S
O7           C17   1.259       .  A
O7           Al9   1.914       .  S
O8           C21   1.267       .  A
O8          Al18   1.904       .  S
Al9          O22   1.923       .  S
Al9          O19   1.916       .  S
Al9          O14   1.790       .  S
O10          C17   1.260       .  A
O10         Al18   1.924       .  S
O11          C20   1.259       .  A
O11         Al18   1.929       .  S
O12         Al18   1.891       .  S
O13          C20   1.254       .  A
O14         Al18   1.795       .  S
O15          C16   1.263       .  A
C16        C1849   1.483       .  S
C17        C1958   1.483       .  S
C20        C1909   1.492       .  S
C21          O22   1.269       .  A
C21        C1878   1.480       .  S
O23          C38   1.261       .  A
O23         Al31   1.897       .  S
C24          O34   1.259       .  A
C24          O25   1.267       .  A
C24        C1778   1.478       .  S
O25         Al27   1.937       .  S
O26          C28   1.256       .  A
O26         Al27   1.886       .  S
Al27         O35   1.902       .  S
Al27         O37   1.919       .  S
Al27         O36   1.793       .  S
C28          O41   1.261       .  A
C28        C1809   1.475   1_565  S
O29          C39   1.262       .  A
O29         Al31   1.915       .  S
O30          C43   1.259       .  A
O30         Al40   1.890       .  S
Al31         O44   1.924       .  S
Al31         O41   1.915       .  S
Al31         O36   1.794       .  S
O32          C39   1.259       .  A
O32         Al40   1.910       .  S
O33          C42   1.255       .  A
O33         Al40   1.891       .  S
O34         Al40   1.881       .  S
O35          C42   1.257       .  A
O36         Al40   1.787       .  S
O37          C38   1.264       .  A
C38        C1749   1.480   1_565  S
C39        C1838   1.484       .  S
C42        C1789   1.472       .  S
C43          O44   1.265       .  A
C43        C1869   1.472       .  S
O45          C60   1.262       .  A
O45         Al53   1.899       .  S
C46          O56   1.258       .  A
C46          O47   1.266       .  A
C46        C1658   1.477       .  S
O47         Al49   1.935       .  S
O48          C50   1.257       .  A
O48         Al49   1.897       .  S
Al49         O57   1.922       .  S
Al49         O59   1.931       .  S
Al49         O58   1.792       .  S
C50          O63   1.261       .  A
C50        C1718   1.489   1_455  S
O51          C61   1.258       .  A
O51         Al53   1.905       .  S
O52          C65   1.264       .  A
O52         Al62   1.906       .  S
Al53         O66   1.942       .  S
Al53         O63   1.919       .  S
Al53         O58   1.794       .  S
O54          C61   1.258       .  A
O54         Al62   1.898       .  S
O55          C64   1.257       .  A
O55         Al62   1.901       .  S
O56         Al62   1.880       .  S
O57          C64   1.263       .  A
O58         Al62   1.788       .  S
O59          C60   1.267       .  A
C60        C1858   1.483   1_455  S
C61        C1729   1.474       .  S
C64        C1669   1.495       .  S
C65          O66   1.268       .  A
C65        C1698   1.493       .  S
O67          C82   1.257       .  A
O67         Al75   1.873       .  S
C68          O78   1.262       .  A
C68          O69   1.275       .  A
C68        C1529   1.482       .  S
O69         Al71   1.954       .  S
O70          C72   1.254       .  A
O70         Al71   1.896       .  S
Al71         O79   1.920       .  S
Al71         O81   1.946       .  S
Al71         O80   1.786       .  S
C72          O85   1.268       .  A
C72        C1578   1.498       .  S
O73          C83   1.262       .  A
O73         Al75   1.916       .  S
O74          C87   1.264       .  A
O74         Al84   1.900       .  S
Al75         O88   1.965       .  S
Al75         O85   1.956       .  S
Al75         O80   1.787       .  S
O76          C83   1.260       .  A
O76         Al84   1.914       .  S
O77          C86   1.256       .  A
O77         Al84   1.917       .  S
O78         Al84   1.871       .  S
O79          C86   1.258       .  A
O80         Al84   1.775       .  S
O81          C82   1.272       .  A
C82        C1618   1.484       .  S
C83        C1638   1.488       .  S
C86        C1558   1.495       .  S
C87          O88   1.276       .  A
C87        C1598   1.504       .  S
O89         C104   1.260       .  A
O89         Al97   1.904       .  S
C90         O100   1.263       .  A
C90          O91   1.268       .  A
C90        C1478   1.500       .  S
O91         Al93   1.935       .  S
O92          C94   1.258       .  A
O92         Al93   1.890       .  S
Al93        O101   1.906       .  S
Al93        O103   1.913       .  S
Al93        O102   1.783       .  S
C94         O107   1.261       .  A
C94        C1449   1.483       .  S
O95         C105   1.258       .  A
O95         Al97   1.913       .  S
O96         C109   1.270       .  A
O96        Al106   1.922       .  S
Al97        O110   1.930       .  S
Al97        O107   1.923       .  S
Al97        O102   1.789       .  S
O98         C105   1.260       .  A
O98        Al106   1.919       .  S
O99         C108   1.264       .  A
O99        Al106   1.944       .  S
O100       Al106   1.905       .  S
O101        C108   1.258       .  A
O102       Al106   1.792       .  S
O103        C104   1.261       .  A
C104       C1609   1.484       .  S
C105       C1509   1.481       .  S
C108       C1498   1.501       .  S
C109        O110   1.269       .  A
C109       C1689   1.497   1_545  S
O111        C126   1.262       .  A
O111       Al119   1.903       .  S
C112        O122   1.262       .  A
C112        O113   1.266       .  A
C112       C1369   1.481       .  S
O113       Al115   1.921       .  S
O114        C116   1.255       .  A
O114       Al115   1.882       .  S
Al115       O123   1.907       .  S
Al115       O125   1.904       .  S
Al115       O124   1.788       .  S
C116        O129   1.259       .  A
C116       C1438   1.481       .  S
O117        C127   1.260       .  A
O117       Al119   1.916       .  S
O118        C131   1.268       .  A
O118       Al128   1.920       .  S
Al119       O132   1.930       .  S
Al119       O129   1.920       .  S
Al119       O124   1.795       .  S
O120        C127   1.261       .  A
O120       Al128   1.919       .  S
O121        C130   1.260       .  A
O121       Al128   1.928       .  S
O122       Al128   1.897       .  S
O123        C130   1.257       .  A
O124       Al128   1.795       .  S
O125        C126   1.262       .  A
C126       C1758   1.480       .  S
C127       C1409   1.494       .  S
C130       C1398   1.502       .  S
C131        O132   1.267       .  A
C131       C1589   1.488   1_655  S
O133        C148   1.263       .  A
O133       Al141   1.901       .  S
C134        O144   1.259       .  A
C134        O135   1.267       .  A
C134       C1329   1.476       .  S
O135       Al137   1.937       .  S
O136        C138   1.256       .  A
O136       Al137   1.897       .  S
Al137       O145   1.911       .  S
Al137       O147   1.935       .  S
Al137       O146   1.791       .  S
C138        O151   1.261       .  A
C138       C1389   1.485       .  S
O139        C149   1.261       .  A
O139       Al141   1.908       .  S
O140        C153   1.262       .  A
O140       Al150   1.905       .  S
Al141       O154   1.932       .  S
Al141       O151   1.925       .  S
Al141       O146   1.794       .  S
O142        C149   1.260       .  A
O142       Al150   1.906       .  S
O143        C152   1.255       .  A
O143       Al150   1.897       .  S
O144       Al150   1.877       .  S
O145        C152   1.259       .  A
O146       Al150   1.789       .  S
O147        C148   1.269       .  A
C148       C1269   1.488       .  S
C149       C1309   1.471       .  S
C152       C1349   1.482       .  S
C153        O154   1.266       .  A
C153       C1289   1.496       .  S
O155        C170   1.260       .  A
O155       Al163   1.906       .  S
C156        O166   1.263       .  A
C156        O157   1.272       .  A
C156       C1209   1.490       .  S
O157       Al159   1.935       .  S
O158        C160   1.253       .  A
O158       Al159   1.868       .  S
Al159       O167   1.910       .  S
Al159       O169   1.917       .  S
Al159       O168   1.789       .  S
C160        O173   1.261       .  A
C160       C1378   1.472       .  S
O161        C171   1.257       .  A
O161       Al163   1.915       .  S
O162        C175   1.271       .  A
O162       Al172   1.917       .  S
Al163       O176   1.925       .  S
Al163       O173   1.917       .  S
Al163       O168   1.789       .  S
O164        C171   1.258       .  A
O164       Al172   1.925       .  S
O165        C174   1.263       .  A
O165       Al172   1.948       .  S
O166       Al172   1.900       .  S
O167        C174   1.256       .  A
O168       Al172   1.796       .  S
O169        C170   1.262       .  A
C170       C1278   1.493       .  S
C171       C1258   1.490       .  S
C174       C1229   1.497       .  S
C175        O176   1.271       .  A
C175       C1198   1.490       .  S
O177        C192   1.261       .  A
O177       Al185   1.896       .  S
C178        O188   1.257       .  A
C178        O179   1.266       .  A
C178       C1158   1.479       .  S
O179       Al181   1.932       .  S
O180        C182   1.254       .  A
O180       Al181   1.892       .  S
Al181       O189   1.911       .  S
Al181       O191   1.934       .  S
Al181       O190   1.794       .  S
C182        O195   1.260       .  A
C182       C1138   1.479       .  S
O183        C193   1.260       .  A
O183       Al185   1.908       .  S
O184        C197   1.260       .  A
O184       Al194   1.898       .  S
Al185       O198   1.927       .  S
Al185       O195   1.921       .  S
Al185       O190   1.802       .  S
O186        C193   1.262       .  A
O186       Al194   1.913       .  S
O187        C196   1.259       .  A
O187       Al194   1.916       .  S
O188       Al194   1.878       .  S
O189        C196   1.259       .  A
O190       Al194   1.789       .  S
O191        C192   1.269       .  A
C192       C1089   1.485       .  S
C193       C1649   1.478       .  S
C196       C1169   1.489       .  S
C197        O198   1.263       .  A
C197       C1109   1.476       .  S
O199        C214   1.260       .  A
O199       Al207   1.920       .  S
C200        O210   1.264       .  A
C200        O201   1.264       .  A
C200       C1458   1.489       .  S
O201       Al203   1.927       .  S
O202        C204   1.256       .  A
O202       Al203   1.868       .  S
Al203       O211   1.905       .  S
Al203       O213   1.907       .  S
Al203       O212   1.790       .  S
C204        O217   1.264       .  A
C204       C1069   1.465       .  S
O205        C215   1.259       .  A
O205       Al207   1.918       .  S
O206        C219   1.267       .  A
O206       Al216   1.908       .  S
Al207       O220   1.910       .  S
Al207       O217   1.924       .  S
Al207       O212   1.801       .  S
O208        C215   1.257       .  A
O208       Al216   1.906       .  S
O209        C218   1.264       .  A
O209       Al216   1.932       .  S
O210       Al216   1.913       .  S
O211        C218   1.259       .  A
O212       Al216   1.796       .  S
O213        C214   1.258       .  A
C214       C1098   1.493       .  S
C215       C1058   1.487       .  S
C218       C1569   1.499       .  S
C219        O220   1.266       .  A
C219       C1298   1.476       .  S
O221        C236   1.258       .  A
O221       Al229   1.882       .  S
C222        O232   1.258       .  A
C222        O223   1.268       .  A
C222       C1829   1.483       .  S
O223       Al225   1.949       .  S
O224        C226   1.259       .  A
O224       Al225   1.895       .  S
Al225       O233   1.915       .  S
Al225       O235   1.949       .  S
Al225       O234   1.780       .  S
C226        O239   1.264       .  A
C226       C1038   1.485       .  S
O227        C237   1.259       .  A
O227       Al229   1.891       .  S
O228        C241   1.263       .  A
O228       Al238   1.907       .  S
Al229       O242   1.931       .  S
Al229       O239   1.936       .  S
Al229       O234   1.781       .  S
O230        C237   1.264       .  A
O230       Al238   1.917       .  S
O231        C240   1.263       .  A
O231       Al238   1.924       .  S
O232       Al238   1.880       .  S
O233        C240   1.263       .  A
O234       Al238   1.774       .  S
O235        C236   1.270       .  A
C236        C998   1.495       .  S
C237       C1009   1.465       .  S
C240       C1949   1.500       .  S
C241        O242   1.265       .  A
C241       C1189   1.488       .  S
O243        C258   1.269       .  A
O243       Al251   1.941       .  S
C244        O254   1.267       .  A
C244        O245   1.255       .  A
C244        C938   1.498       .  S
O245       Al247   1.878       .  S
O246        C248   1.262       .  A
O246       Al247   1.919       .  S
Al247       O255   1.935       .  S
Al247       O257   1.892       .  S
Al247       O256   1.769       .  S
C248        O261   1.260       .  A
C248        C978   1.475       .  S
O249        C259   1.269       .  A
O249       Al251   1.953       .  S
O250        C263   1.266       .  A
O250       Al260   1.935       .  S
Al251       O264   1.886       .  S
Al251       O261   1.910       .  S
Al251       O256   1.777       .  S
O252        C259   1.259       .  A
O252       Al260   1.889       .  S
O253        C262   1.262       .  A
O253       Al260   1.912       .  S
O254       Al260   1.944       .  S
O255        C262   1.265       .  A
O256       Al260   1.780       .  S
O257        C258   1.260       .  A
C258        C989   1.477       .  S
C259       C1678   1.495       .  S
C262        C949   1.490       .  S
C263        O264   1.258       .  A
C263       C1118   1.493       .  S
O265        C280   1.260       .  A
O265       Al273   1.899       .  S
C266        O276   1.264       .  A
C266        O267   1.267       .  A
C266       C1938   1.479       .  S
O267       Al269   1.923       .  S
O268        C270   1.251       .  A
O268       Al269   1.866       .  S
Al269       O277   1.904       .  S
Al269       O279   1.910       .  S
Al269       O278   1.788       .  S
C270        O283   1.256       .  A
C270        C909   1.467       .  S
O271        C281   1.258       .  A
O271       Al273   1.908       .  S
O272        C285   1.270       .  A
O272       Al282   1.921       .  S
Al273       O286   1.917       .  S
Al273       O283   1.906       .  S
Al273       O278   1.795       .  S
O274        C281   1.256       .  A
O274       Al282   1.905       .  S
O275        C284   1.257       .  A
O275       Al282   1.916       .  S
O276       Al282   1.897       .  S
O277        C284   1.256       .  A
O278       Al282   1.796       .  S
O279        C280   1.263       .  A
C280        C869   1.487       .  S
C281       C1358   1.478       .  S
C284       C1709   1.492       .  S
C285        O286   1.266       .  A
C285        C898   1.486       .  S
O287        C302   1.258       .  A
O287       Al295   1.890       .  S
C288        O298   1.259       .  A
C288        O289   1.266       .  A
C288        C829   1.476       .  S
O289       Al291   1.935       .  S
O290        C292   1.256       .  A
O290       Al291   1.888       .  S
Al291       O299   1.910       .  S
Al291       O301   1.945       .  S
Al291       O300   1.790       .  S
C292        O305   1.265       .  A
C292       C1489   1.485       .  S
O293        C303   1.260       .  A
O293       Al295   1.902       .  S
O294        C307   1.261       .  A
O294       Al304   1.905       .  S
Al295       O308   1.935       .  S
Al295       O305   1.941       .  S
Al295       O300   1.783       .  S
O296        C303   1.263       .  A
O296       Al304   1.915       .  S
O297        C306   1.260       .  A
O297       Al304   1.907       .  S
O298       Al304   1.880       .  S
O299        C306   1.261       .  A
O300       Al304   1.783       .  S
O301        C302   1.268       .  A
C302        C809   1.504       .  S
C303       C1338   1.474       .  S
C306        C858   1.481       .  S
C307        O308   1.266       .  A
C307        C889   1.491       .  S
O309        C324   1.260       .  A
O309       Al317   1.895       .  S
C310        O320   1.259       .  A
C310        O311   1.266       .  A
C310       C1018   1.467       .  S
O311       Al313   1.926       .  S
O312        C314   1.256       .  A
O312       Al313   1.896       .  S
Al313       O321   1.921       .  S
Al313       O323   1.919       .  S
Al313       O322   1.799       .  S
C314        O327   1.261       .  A
C314        C789   1.492   1_554  S
O315        C325   1.259       .  A
O315       Al317   1.919       .  S
O316        C329   1.264       .  A
O316       Al326   1.901       .  S
Al317       O330   1.934       .  S
Al317       O327   1.923       .  S
Al317       O322   1.803       .  S
O318        C325   1.257       .  A
O318       Al326   1.905       .  S
O319        C328   1.257       .  A
O319       Al326   1.917       .  S
O320       Al326   1.873       .  S
O321        C328   1.260       .  A
O322       Al326   1.791       .  S
O323        C324   1.264       .  A
C324        C878   1.478   1_554  S
C325       C1769   1.485       .  S
C328       C1249   1.502       .  S
C329        O330   1.267       .  A
C329        C769   1.482       .  S
O331        C346   1.267       .  A
O331       Al339   1.915       .  S
C332        O342   1.266       .  A
C332        O333   1.263       .  A
C332       C1629   1.491       .  S
O333       Al335   1.900       .  S
O334        C336   1.257       .  A
O334       Al335   1.908       .  S
Al335       O343   1.930       .  S
Al335       O345   1.921       .  S
Al335       O344   1.790       .  S
C336        O349   1.261       .  A
C336        C958   1.486       .  S
O337        C347   1.258       .  A
O337       Al339   1.908       .  S
O338        C351   1.260       .  A
O338       Al348   1.897       .  S
Al339       O352   1.906       .  S
Al339       O349   1.924       .  S
Al339       O344   1.790       .  S
O340        C347   1.253       .  A
O340       Al348   1.870       .  S
O341        C350   1.256       .  A
O341       Al348   1.902       .  S
O342       Al348   1.916       .  S
O343        C350   1.260       .  A
O344       Al348   1.785       .  S
O345        C346   1.270       .  A
C346        C729   1.485       .  S
C347        C758   1.461       .  S
C350       C1418   1.483       .  S
C351        O352   1.261       .  A
C351        C718   1.486       .  S
O353        C368   1.269       .  A
O353       Al361   1.938       .  S
C354        O364   1.279       .  A
C354        O355   1.250       .  A
C354        C669   1.512       .  S
O355       Al357   1.894       .  S
O356        C358   1.262       .  A
O356       Al357   1.921       .  S
Al357       O365   1.918       .  S
Al357       O367   1.909       .  S
Al357       O366   1.777       .  S
C358        O371   1.257       .  A
C358        C929   1.473       .  S
O359        C369   1.264       .  A
O359       Al361   1.929       .  S
O360        C373   1.270       .  A
O360       Al370   1.947       .  S
Al361       O374   1.887       .  S
Al361       O371   1.898       .  S
Al361       O366   1.780       .  S
O362        C369   1.255       .  A
O362       Al370   1.880       .  S
O363        C372   1.263       .  A
O363       Al370   1.917       .  S
O364       Al370   1.938       .  S
O365        C372   1.261       .  A
O366       Al370   1.785       .  S
O367        C368   1.265       .  A
C368        C738   1.492       .  S
C369       C1798   1.488       .  S
C372        C689   1.493       .  S
C373        O374   1.257       .  A
C373        C778   1.503   1_455  S
O375        C390   1.270       .  A
O375       Al383   1.941       .  S
C376        O386   1.268       .  A
C376        O377   1.258       .  A
C376       C1078   1.482       .  S
O377       Al379   1.883       .  S
O378        C380   1.261       .  A
O378       Al379   1.919       .  S
Al379       O387   1.942       .  S
Al379       O389   1.899       .  S
Al379       O388   1.774       .  S
C380        O393   1.256       .  A
C380       C1469   1.470       .  S
O381        C391   1.267       .  A
O381       Al383   1.937       .  S
O382        C395   1.265       .  A
O382       Al392   1.931       .  S
Al383       O396   1.880       .  S
Al383       O393   1.898       .  S
Al383       O388   1.782       .  S
O384        C391   1.258       .  A
O384       Al392   1.894       .  S
O385        C394   1.261       .  A
O385       Al392   1.916       .  S
O386       Al392   1.941       .  S
O387        C394   1.265       .  A
O388       Al392   1.778       .  S
O389        C390   1.264       .  A
C390        C818   1.479       .  S
C391        C649   1.495       .  S
C394       C1129   1.517       .  S
C395        O396   1.257       .  A
C395        C709   1.470   1_556  S
O397        C412   1.260       .  A
O397       Al405   1.903       .  S
C398        O408   1.266       .  A
C398        O399   1.266       .  A
C398        C918   1.476       .  S
O399       Al401   1.916       .  S
O400        C402   1.252       .  A
O400       Al401   1.869       .  S
Al401       O409   1.903       .  S
Al401       O411   1.909       .  S
Al401       O410   1.789       .  S
C402        O415   1.257       .  A
C402       C1898   1.470       .  S
O403        C413   1.257       .  A
O403       Al405   1.909       .  S
O404        C417   1.271       .  A
O404       Al414   1.925       .  S
Al405       O418   1.923       .  S
Al405       O415   1.910       .  S
Al405       O410   1.797       .  S
O406        C413   1.261       .  A
O406       Al414   1.930       .  S
O407        C416   1.260       .  A
O407       Al414   1.934       .  S
O408       Al414   1.901       .  S
O409        C416   1.255       .  A
O410       Al414   1.797       .  S
O411        C412   1.263       .  A
C412        C609   1.489       .  S
C413       C1178   1.489       .  S
C416        C798   1.499       .  S
C417        O418   1.268       .  A
C417        C629   1.497       .  S
O419        C434   1.262       .  A
O419       Al427   1.913       .  S
C420        O430   1.257       .  A
C420        O421   1.262       .  A
C420       C1738   1.469       .  S
O421       Al423   1.927       .  S
O422        C424   1.254       .  A
O422       Al423   1.880       .  S
Al423       O431   1.912       .  S
Al423       O433   1.930       .  S
Al423       O432   1.787       .  S
C424        O437   1.270       .  A
C424        C698   1.508       .  S
O425        C435   1.260       .  A
O425       Al427   1.918       .  S
O426        C439   1.263       .  A
O426       Al436   1.897       .  S
Al427       O440   1.954       .  S
Al427       O437   1.953       .  S
Al427       O432   1.791       .  S
O428        C435   1.256       .  A
O428       Al436   1.899       .  S
O429        C438   1.262       .  A
O429       Al436   1.918       .  S
O430       Al436   1.887       .  S
O431        C438   1.263       .  A
O432       Al436   1.786       .  S
O433        C434   1.264       .  A
C434        C598   1.493   1_556  S
C435       C1149   1.480       .  S
C438       C1518   1.486       .  S
C439        O440   1.273       .  A
C439        C638   1.494       .  S
O441        C456   1.261       .  A
O441       Al449   1.902       .  S
C442        O452   1.258       .  A
C442        O443   1.267       .  A
C442       C1318   1.476       .  S
O443       Al445   1.941       .  S
O444        C446   1.257       .  A
O444       Al445   1.890       .  S
Al445       O453   1.912       .  S
Al445       O455   1.926       .  S
Al445       O454   1.786       .  S
C446        O459   1.263       .  A
C446       C1918   1.479       .  S
O447        C457   1.258       .  A
O447       Al449   1.902       .  S
O448        C461   1.260       .  A
O448       Al458   1.891       .  S
Al449       O462   1.939       .  S
Al449       O459   1.921       .  S
Al449       O454   1.791       .  S
O450        C457   1.260       .  A
O450       Al458   1.912       .  S
O451        C460   1.260       .  A
O451       Al458   1.915       .  S
O452       Al458   1.877       .  S
O453        C460   1.260       .  A
O454       Al458   1.782       .  S
O455        C456   1.265       .  A
C456        C618   1.481   1_545  S
C457        C838   1.471       .  S
C460       C1049   1.493       .  S
C461        O462   1.268       .  A
C461        C578   1.485       .  S
O463        C478   1.261       .  A
O463       Al471   1.898       .  S
C464        O474   1.257       .  A
C464        O465   1.262       .  A
C464        C749   1.486       .  S
O465       Al467   1.912       .  S
O466        C468   1.264       .  A
O466       Al467   1.926       .  S
Al467       O475   1.938       .  S
Al467       O477   1.913       .  S
Al467       O476   1.780       .  S
C468        O481   1.262       .  A
C468       C1238   1.499       .  S
O469        C479   1.261       .  A
O469       Al471   1.919       .  S
O470        C483   1.260       .  A
O470       Al480   1.906       .  S
Al471       O484   1.909       .  S
Al471       O481   1.914       .  S
Al471       O476   1.782       .  S
O472        C479   1.257       .  A
O472       Al480   1.881       .  S
O473        C482   1.263       .  A
O473       Al480   1.905       .  S
O474       Al480   1.899       .  S
O475        C482   1.267       .  A
O476       Al480   1.779       .  S
O477        C478   1.265       .  A
C478        C549   1.469       .  S
C479       C1538   1.470       .  S
C482        C658   1.488       .  S
C483        O484   1.261       .  A
C483        C529   1.494       .  S
O485        C500   1.261       .  A
O485       Al493   1.906       .  S
C486        O496   1.258       .  A
C486        O487   1.266       .  A
C486       C1429   1.471       .  S
O487       Al489   1.928       .  S
O488        C490   1.256       .  A
O488       Al489   1.880       .  S
Al489       O497   1.910       .  S
Al489       O499   1.926       .  S
Al489       O498   1.779       .  S
C490        O503   1.262       .  A
C490       C1218   1.469       .  S
O491        C501   1.261       .  A
O491       Al493   1.907       .  S
O492        C505   1.263       .  A
O492       Al502   1.904       .  S
Al493       O506   1.920       .  S
Al493       O503   1.926       .  S
Al493       O498   1.783       .  S
O494        C501   1.261       .  A
O494       Al502   1.911       .  S
O495        C504   1.261       .  A
O495       Al502   1.916       .  S
O496       Al502   1.882       .  S
O497        C504   1.261       .  A
O498       Al502   1.783       .  S
O499        C500   1.265       .  A
C500        C558   1.501       .  S
C501        C849   1.472   1_554  S
C504       C1818   1.495       .  S
C505        O506   1.265       .  A
C505        C569   1.480   1_554  S
O507        C522   1.259       .  A
O507       Al515   1.912       .  S
C508        O518   1.265       .  A
C508        O509   1.267       .  A
C508        C969   1.494       .  S
O509       Al511   1.931       .  S
O510        C512   1.257       .  A
O510       Al511   1.876       .  S
Al511       O519   1.901       .  S
Al511       O521   1.909       .  S
Al511       O520   1.787       .  S
C512        O525   1.265       .  A
C512        C678   1.476       .  S
O513        C523   1.259       .  A
O513       Al515   1.922       .  S
O514        C527   1.266       .  A
O514       Al524   1.900       .  S
Al515       O528   1.914       .  S
Al515       O525   1.923       .  S
Al515       O520   1.793       .  S
O516        C523   1.257       .  A
O516       Al524   1.918       .  S
O517        C526   1.261       .  A
O517       Al524   1.930       .  S
O518       Al524   1.907       .  S
O519        C526   1.257       .  A
O520       Al524   1.795       .  S
O521        C522   1.258       .  A
C522        C589   1.489       .  S
C523       C1549   1.495   1_565  S
C526       C1029   1.487       .  S
C527        O528   1.268       .  A
C527        C538   1.470   1_565  S
C529        C530   1.421       .  A
C529        C534   1.421       .  A
C530        C531   1.409       .  A
C530       Br542   1.932       .  S
C531        C532   1.406       .  A
C531       Br546   1.932       .  S
C532        C535   1.485       .  S
C532        C533   1.407       .  A
C533        C534   1.407       .  A
C533       Br541   1.935       .  S
C534       Br545   1.936       .  S
C535        C536   1.410       .  A
C535        C540   1.412       .  A
C536        C537   1.407       .  A
C536       Br547   1.930       .  S
C537        C538   1.408       .  A
C537       Br543   1.926   1_545  S
C538        C539   1.408       .  A
C539        C540   1.405       .  A
C539       Br548   1.931       .  S
C540       Br544   1.931       .  S
C549        C550   1.407       .  A
C549        C554   1.408       .  A
C550        C551   1.403       .  A
C550       Br562   1.929       .  S
C551        C552   1.409       .  A
C551       Br566   1.930       .  S
C552        C555   1.487       .  S
C552        C553   1.411       .  A
C553        C554   1.411       .  A
C553       Br561   1.926       .  S
C554       Br565   1.929       .  S
C555        C556   1.403       .  A
C555        C560   1.407       .  A
C556        C557   1.410       .  A
C556       Br567   1.933       .  S
C557        C558   1.425       .  A
C557       Br563   1.932       .  S
C558        C559   1.423       .  A
C559        C560   1.411       .  A
C559       Br568   1.933       .  S
C560       Br564   1.933       .  S
C569        C570   1.414       .  A
C569        C574   1.411       .  A
C570        C571   1.408       .  A
C570       Br582   1.930       .  S
C571        C572   1.408       .  A
C571       Br586   1.931       .  S
C572        C575   1.485       .  S
C572        C573   1.407       .  A
C573        C574   1.407       .  A
C573       Br581   1.929       .  S
C574       Br585   1.928   1_556  S
C575        C576   1.406       .  A
C575        C580   1.408       .  A
C576        C577   1.405       .  A
C576       Br587   1.934       .  S
C577        C578   1.418       .  A
C577       Br583   1.933       .  S
C578        C579   1.414       .  A
C579        C580   1.411       .  A
C579       Br588   1.929       .  S
C580       Br584   1.928       .  S
C589        C590   1.410       .  A
C589        C594   1.414       .  A
C590        C591   1.416       .  A
C590       Br602   1.927       .  S
C591        C592   1.413       .  A
C591       Br606   1.926       .  S
C592        C595   1.501       .  S
C592        C593   1.410       .  A
C593        C594   1.411       .  A
C593       Br601   1.930       .  S
C594       Br605   1.930       .  S
C595        C596   1.413       .  A
C595        C600   1.410       .  A
C596        C597   1.417       .  A
C596       Br607   1.926       .  S
C597        C598   1.412       .  A
C597       Br603   1.928   1_554  S
C598        C599   1.414       .  A
C599        C600   1.411       .  A
C599       Br608   1.928       .  S
C600       Br604   1.933       .  S
C609        C610   1.410       .  A
C609        C614   1.416       .  A
C610        C611   1.411       .  A
C610       Br622   1.929       .  S
C611        C612   1.411       .  A
C611       Br626   1.927       .  S
C612        C615   1.495       .  S
C612        C613   1.410       .  A
C613        C614   1.412       .  A
C613       Br621   1.930       .  S
C614       Br625   1.931       .  S
C615        C616   1.412       .  A
C615        C620   1.411       .  A
C616        C617   1.414       .  A
C616       Br627   1.926       .  S
C617        C618   1.410       .  A
C617       Br623   1.928   1_565  S
C618        C619   1.410       .  A
C619        C620   1.408       .  A
C619       Br628   1.930       .  S
C620       Br624   1.929       .  S
C629        C630   1.419       .  A
C629        C634   1.416       .  A
C630        C631   1.411       .  A
C630       Br642   1.930       .  S
C631        C632   1.407       .  A
C631       Br646   1.930       .  S
C632        C635   1.497       .  S
C632        C633   1.411       .  A
C633        C634   1.415       .  A
C633       Br641   1.929       .  S
C634       Br645   1.930       .  S
C635        C636   1.411       .  A
C635        C640   1.409       .  A
C636        C637   1.415       .  A
C636       Br647   1.926       .  S
C637        C638   1.411       .  A
C637       Br643   1.927       .  S
C638        C639   1.418       .  A
C639        C640   1.411       .  A
C639       Br648   1.931       .  S
C640       Br644   1.934       .  S
C649        C650   1.419       .  A
C649        C654   1.417       .  A
C650        C651   1.408   1_556  A
C650       Br662   1.933       .  S
C651        C652   1.408       .  A
C651       Br666   1.935       .  S
C652        C655   1.495       .  S
C652        C653   1.411       .  A
C653        C654   1.414   1_554  A
C653       Br661   1.930       .  S
C654       Br665   1.930       .  S
C655        C656   1.412       .  A
C655        C660   1.409       .  A
C656        C657   1.413       .  A
C656       Br667   1.928       .  S
C657        C658   1.411       .  A
C657       Br663   1.928       .  S
C658        C659   1.416       .  A
C659        C660   1.409       .  A
C659       Br668   1.929       .  S
C660       Br664   1.934       .  S
C669        C670   1.423       .  A
C669        C674   1.434       .  A
C670        C671   1.413       .  A
C670       Br682   1.935       .  S
C671        C672   1.405       .  A
C671       Br686   1.930       .  S
C672        C675   1.487       .  S
C672        C673   1.402       .  A
C673        C674   1.408       .  A
C673       Br681   1.938       .  S
C674       Br685   1.932       .  S
C675        C676   1.407       .  A
C675        C680   1.411       .  A
C676        C677   1.403       .  A
C676       Br687   1.932       .  S
C677        C678   1.414       .  A
C677       Br683   1.933       .  S
C678        C679   1.409       .  A
C679        C680   1.412       .  A
C679       Br688   1.928       .  S
C680       Br684   1.925       .  S
C689        C690   1.418       .  A
C689        C694   1.414       .  A
C690        C691   1.406       .  A
C690       Br702   1.927       .  S
C691        C692   1.406       .  A
C691       Br706   1.936       .  S
C692        C695   1.494       .  S
C692        C693   1.412       .  A
C693        C694   1.417       .  A
C693       Br701   1.927       .  S
C694       Br705   1.927       .  S
C695        C696   1.405       .  A
C695        C700   1.407       .  A
C696        C697   1.411   1_554  A
C696       Br707   1.935       .  S
C697        C698   1.430       .  A
C697       Br703   1.939       .  S
C698        C699   1.421       .  A
C699        C700   1.414   1_556  A
C699       Br708   1.931       .  S
C700       Br704   1.930       .  S
C709        C710   1.409       .  A
C709        C714   1.407       .  A
C710        C711   1.403       .  A
C710       Br722   1.929       .  S
C711        C712   1.410       .  A
C711       Br726   1.931       .  S
C712        C715   1.486       .  S
C712        C713   1.411       .  A
C713        C714   1.410       .  A
C713       Br721   1.927       .  S
C714       Br725   1.928   1_554  S
C715        C716   1.408       .  A
C715        C720   1.408       .  A
C716        C717   1.408       .  A
C716       Br727   1.931       .  S
C717        C718   1.414       .  A
C717       Br723   1.929       .  S
C718        C719   1.417       .  A
C719        C720   1.409       .  A
C719       Br728   1.931       .  S
C720       Br724   1.932       .  S
C729        C730   1.415       .  A
C729        C734   1.411       .  A
C730        C731   1.409       .  A
C730       Br742   1.927       .  S
C731        C732   1.407       .  A
C731       Br746   1.929       .  S
C732        C735   1.491       .  S
C732        C733   1.410       .  A
C733        C734   1.410       .  A
C733       Br741   1.929       .  S
C734       Br745   1.928       .  S
C735        C736   1.409       .  A
C735        C740   1.407       .  A
C736        C737   1.409       .  A
C736       Br747   1.933       .  S
C737        C738   1.416       .  A
C737       Br743   1.931       .  S
C738        C739   1.416       .  A
C739        C740   1.412       .  A
C739       Br748   1.926       .  S
C740       Br744   1.929       .  S
C749        C750   1.424       .  A
C749        C754   1.419       .  A
C750        C751   1.402       .  A
C750       Br762   1.937       .  S
C751        C752   1.404       .  A
C751       Br766   1.936       .  S
C752        C755   1.474       .  S
C752        C753   1.402       .  A
C753        C754   1.405       .  A
C753       Br761   1.930       .  S
C754       Br765   1.930       .  S
C755        C756   1.408       .  A
C755        C760   1.409       .  A
C756        C757   1.400       .  A
C756       Br767   1.935       .  S
C757        C758   1.407       .  A
C757       Br763   1.923       .  S
C758        C759   1.404       .  A
C759        C760   1.405       .  A
C759       Br768   1.927       .  S
C760       Br764   1.926       .  S
C769        C770   1.411       .  A
C769        C774   1.411       .  A
C770        C771   1.415       .  A
C770       Br782   1.927       .  S
C771        C772   1.412       .  A
C771       Br786   1.927       .  S
C772        C775   1.492       .  S
C772        C773   1.408       .  A
C773        C774   1.404       .  A
C773       Br781   1.934       .  S
C774       Br785   1.925       .  S
C775        C776   1.406       .  A
C775        C780   1.407       .  A
C776        C777   1.409       .  A
C776       Br787   1.936       .  S
C777        C778   1.428       .  A
C777       Br783   1.937       .  S
C778        C779   1.420       .  A
C779        C780   1.413       .  A
C779       Br788   1.930   1_655  S
C780       Br784   1.929       .  S
C789        C790   1.413       .  A
C789        C794   1.415       .  A
C790        C791   1.415       .  A
C790       Br802   1.929   1_556  S
C791        C792   1.412       .  A
C791       Br806   1.927       .  S
C792        C795   1.500       .  S
C792        C793   1.411       .  A
C793        C794   1.411       .  A
C793       Br801   1.932       .  S
C794       Br805   1.932       .  S
C795        C796   1.412       .  A
C795        C800   1.407       .  A
C796        C797   1.417       .  A
C796       Br807   1.927       .  S
C797        C798   1.413       .  A
C797       Br803   1.928       .  S
C798        C799   1.421       .  A
C799        C800   1.411       .  A
C799       Br808   1.928       .  S
C800       Br804   1.934       .  S
C809        C810   1.424   1_655  A
C809        C814   1.426   1_655  A
C810        C811   1.415       .  A
C810       Br822   1.932   1_455  S
C811        C812   1.407       .  A
C811       Br826   1.930       .  S
C812        C815   1.489       .  S
C812        C813   1.402       .  A
C813        C814   1.405       .  A
C813       Br821   1.934       .  S
C814       Br825   1.935       .  S
C815        C816   1.411       .  A
C815        C820   1.409       .  A
C816        C817   1.415       .  A
C816       Br827   1.926       .  S
C817        C818   1.411       .  A
C817       Br823   1.927       .  S
C818        C819   1.411       .  A
C819        C820   1.401       .  A
C819       Br828   1.930       .  S
C820       Br824   1.934       .  S
C829        C830   1.411       .  A
C829        C834   1.410       .  A
C830        C831   1.411       .  A
C830       Br842   1.927       .  S
C831        C832   1.409       .  A
C831       Br846   1.926       .  S
C832        C835   1.484       .  S
C832        C833   1.409       .  A
C833        C834   1.403       .  A
C833       Br841   1.933       .  S
C834       Br845   1.931       .  S
C835        C836   1.410       .  A
C835        C840   1.408       .  A
C836        C837   1.408       .  A
C836       Br847   1.929       .  S
C837        C838   1.409       .  A
C837       Br843   1.929       .  S
C838        C839   1.408       .  A
C839        C840   1.407       .  A
C839       Br848   1.928       .  S
C840       Br844   1.928       .  S
C849        C850   1.407       .  A
C849        C854   1.409   1_556  A
C850        C851   1.408       .  A
C850       Br862   1.929       .  S
C851        C852   1.411       .  A
C851       Br866   1.929       .  S
C852        C855   1.485       .  S
C852        C853   1.408       .  A
C853        C854   1.407   1_556  A
C853       Br861   1.929   1_556  S
C854       Br865   1.926       .  S
C855        C856   1.408       .  A
C855        C860   1.408       .  A
C856        C857   1.407       .  A
C856       Br867   1.932       .  S
C857        C858   1.414       .  A
C857       Br863   1.929       .  S
C858        C859   1.412       .  A
C859        C860   1.410       .  A
C859       Br868   1.928       .  S
C860       Br864   1.928       .  S
C869        C870   1.418       .  A
C869        C874   1.413       .  A
C870        C871   1.410       .  A
C870       Br882   1.931       .  S
C871        C872   1.408       .  A
C871       Br886   1.931       .  S
C872        C875   1.490       .  S
C872        C873   1.409       .  A
C873        C874   1.410       .  A
C873       Br881   1.928       .  S
C874       Br885   1.930       .  S
C875        C876   1.409       .  A
C875        C880   1.412       .  A
C876        C877   1.404       .  A
C876       Br887   1.931       .  S
C877        C878   1.409       .  A
C877       Br883   1.930       .  S
C878        C879   1.410       .  A
C879        C880   1.414       .  A
C879       Br888   1.927   1_556  S
C880       Br884   1.926       .  S
C889        C890   1.417       .  A
C889        C894   1.414       .  A
C890        C891   1.410       .  A
C890       Br902   1.931       .  S
C891        C892   1.409       .  A
C891       Br906   1.933       .  S
C892        C895   1.493       .  S
C892        C893   1.409       .  A
C893        C894   1.412       .  A
C893       Br901   1.928       .  S
C894       Br905   1.927       .  S
C895        C896   1.411       .  A
C895        C900   1.409       .  A
C896        C897   1.412       .  A
C896       Br907   1.930       .  S
C897        C898   1.412       .  A
C897       Br903   1.929       .  S
C898        C899   1.414       .  A
C899        C900   1.410       .  A
C899       Br908   1.929       .  S
C900       Br904   1.930       .  S
C909        C910   1.407       .  A
C909        C914   1.408       .  A
C910        C911   1.409       .  A
C910       Br922   1.929       .  S
C911        C912   1.412       .  A
C911       Br926   1.927       .  S
C912        C915   1.483       .  S
C912        C913   1.410       .  A
C913        C914   1.401       .  A
C913       Br921   1.935       .  S
C914       Br925   1.929       .  S
C915        C916   1.410       .  A
C915        C920   1.409       .  A
C916        C917   1.406       .  A
C916       Br927   1.934       .  S
C917        C918   1.412       .  A
C917       Br923   1.929       .  S
C918        C919   1.411       .  A
C919        C920   1.407       .  A
C919       Br928   1.930       .  S
C920       Br924   1.930       .  S
C929        C930   1.409       .  A
C929        C934   1.408       .  A
C930        C931   1.409       .  A
C930       Br942   1.926       .  S
C931        C932   1.409       .  A
C931       Br946   1.927       .  S
C932        C935   1.481       .  S
C932        C933   1.408       .  A
C933        C934   1.403       .  A
C933       Br941   1.932       .  S
C934       Br945   1.927       .  S
C935        C936   1.403       .  A
C935        C940   1.403       .  A
C936        C937   1.404       .  A
C936       Br947   1.936       .  S
C937        C938   1.428       .  A
C937       Br943   1.941       .  S
C938        C939   1.424       .  A
C939        C940   1.411       .  A
C939       Br948   1.934       .  S
C940       Br944   1.930       .  S
C949        C950   1.414       .  A
C949        C954   1.412       .  A
C950        C951   1.412       .  A
C950       Br962   1.929       .  S
C951        C952   1.411       .  A
C951       Br966   1.930       .  S
C952        C955   1.497       .  S
C952        C953   1.411       .  A
C953        C954   1.413       .  A
C953       Br961   1.928       .  S
C954       Br965   1.928       .  S
C955        C956   1.411       .  A
C955        C960   1.412       .  A
C956        C957   1.413       .  A
C956       Br967   1.930       .  S
C957        C958   1.414       .  A
C957       Br963   1.925       .  S
C958        C959   1.408       .  A
C959        C960   1.411       .  A
C959       Br968   1.929       .  S
C960       Br964   1.928       .  S
C969        C970   1.421       .  A
C969        C974   1.420       .  A
C970        C971   1.412       .  A
C970       Br982   1.932       .  S
C971        C972   1.407       .  A
C971       Br986   1.931       .  S
C972        C975   1.487       .  S
C972        C973   1.407       .  A
C973        C974   1.405       .  A
C973       Br981   1.936       .  S
C974       Br985   1.933       .  S
C975        C976   1.410       .  A
C975        C980   1.411       .  A
C976        C977   1.406       .  A
C976       Br987   1.930       .  S
C977        C978   1.408       .  A
C977       Br983   1.926       .  S
C978        C979   1.407       .  A
C979        C980   1.408       .  A
C979       Br988   1.923       .  S
C980       Br984   1.930       .  S
C989        C990   1.411       .  A
C989        C994   1.410       .  A
C990        C991   1.402       .  A
C990      Br1002   1.931       .  S
C991        C992   1.410       .  A
C991      Br1006   1.935       .  S
C992        C995   1.487       .  S
C992        C993   1.411       .  A
C993        C994   1.412       .  A
C993      Br1001   1.928       .  S
C994      Br1005   1.927       .  S
C995        C996   1.405       .  A
C995       C1000   1.409       .  A
C996        C997   1.405       .  A
C996      Br1007   1.937       .  S
C997        C998   1.425       .  A
C997      Br1003   1.936       .  S
C998        C999   1.418       .  A
C999       C1000   1.411       .  A
C999      Br1008   1.932       .  S
C1000     Br1004   1.930       .  S
C1009      C1010   1.407       .  A
C1009      C1014   1.409       .  A
C1010      C1011   1.404       .  A
C1010     Br1022   1.929       .  S
C1011      C1012   1.409       .  A
C1011     Br1026   1.930       .  S
C1012      C1015   1.476       .  S
C1012      C1013   1.408       .  A
C1013      C1014   1.404       .  A
C1013     Br1021   1.930       .  S
C1014     Br1025   1.930       .  S
C1015      C1016   1.408       .  A
C1015      C1020   1.407       .  A
C1016      C1017   1.409       .  A
C1016     Br1027   1.927       .  S
C1017      C1018   1.409       .  A
C1017     Br1023   1.928       .  S
C1018      C1019   1.410       .  A
C1019      C1020   1.400       .  A
C1019     Br1028   1.932       .  S
C1020     Br1024   1.934       .  S
C1029      C1030   1.411       .  A
C1029      C1034   1.417       .  A
C1030      C1031   1.412       .  A
C1030     Br1042   1.929       .  S
C1031      C1032   1.410       .  A
C1031     Br1046   1.928       .  S
C1032      C1035   1.491       .  S
C1032      C1033   1.408       .  A
C1033      C1034   1.408       .  A
C1033     Br1041   1.934       .  S
C1034     Br1045   1.930       .  S
C1035      C1036   1.410       .  A
C1035      C1040   1.410       .  A
C1036      C1037   1.411       .  A
C1036     Br1047   1.930       .  S
C1037      C1038   1.413       .  A
C1037     Br1043   1.928       .  S
C1038      C1039   1.415       .  A
C1039      C1040   1.408       .  A
C1039     Br1048   1.933       .  S
C1040     Br1044   1.932       .  S
C1049      C1050   1.417       .  A
C1049      C1054   1.415       .  A
C1050      C1051   1.411       .  A
C1050     Br1062   1.932       .  S
C1051      C1052   1.410       .  A
C1051     Br1066   1.930       .  S
C1052      C1055   1.496       .  S
C1052      C1053   1.410       .  A
C1053      C1054   1.412       .  A
C1053     Br1061   1.929       .  S
C1054     Br1065   1.931       .  S
C1055      C1056   1.411       .  A
C1055      C1060   1.411       .  A
C1056      C1057   1.412       .  A
C1056     Br1067   1.931       .  S
C1057      C1058   1.413       .  A
C1057     Br1063   1.929       .  S
C1058      C1059   1.411       .  A
C1059      C1060   1.412       .  A
C1059     Br1068   1.926       .  S
C1060     Br1064   1.927       .  S
C1069      C1070   1.407       .  A
C1069      C1074   1.407       .  A
C1070      C1071   1.406       .  A
C1070     Br1082   1.926       .  S
C1071      C1072   1.409       .  A
C1071     Br1086   1.927       .  S
C1072      C1075   1.478       .  S
C1072      C1073   1.408       .  A
C1073      C1074   1.401       .  A
C1073     Br1081   1.933       .  S
C1074     Br1085   1.923       .  S
C1075      C1076   1.407       .  A
C1075      C1080   1.405       .  A
C1076      C1077   1.403       .  A
C1076     Br1087   1.934       .  S
C1077      C1078   1.417       .  A
C1077     Br1083   1.934       .  S
C1078      C1079   1.415       .  A
C1079      C1080   1.408       .  A
C1079     Br1088   1.928       .  S
C1080     Br1084   1.930       .  S
C1089      C1090   1.412       .  A
C1089      C1094   1.410       .  A
C1090      C1091   1.409       .  A
C1090     Br1102   1.932       .  S
C1091      C1092   1.412       .  A
C1091     Br1106   1.931       .  S
C1092      C1095   1.499       .  S
C1092      C1093   1.413       .  A
C1093      C1094   1.415       .  A
C1093     Br1101   1.926       .  S
C1094     Br1105   1.929       .  S
C1095      C1096   1.411       .  A
C1095      C1100   1.411       .  A
C1096      C1097   1.413       .  A
C1096     Br1107   1.930       .  S
C1097      C1098   1.414       .  A
C1097     Br1103   1.929       .  S
C1098      C1099   1.412       .  A
C1099      C1100   1.414       .  A
C1099     Br1108   1.928       .  S
C1100     Br1104   1.929       .  S
C1109      C1110   1.410       .  A
C1109      C1114   1.410       .  A
C1110      C1111   1.403       .  A
C1110     Br1122   1.925       .  S
C1111      C1112   1.407       .  A
C1111     Br1126   1.934       .  S
C1112      C1115   1.483       .  S
C1112      C1113   1.410       .  A
C1113      C1114   1.412       .  A
C1113     Br1121   1.927       .  S
C1114     Br1125   1.927       .  S
C1115      C1116   1.406       .  A
C1115      C1120   1.404       .  A
C1116      C1117   1.409       .  A
C1116     Br1127   1.929       .  S
C1117      C1118   1.420       .  A
C1117     Br1123   1.934       .  S
C1118      C1119   1.425       .  A
C1119      C1120   1.407       .  A
C1119     Br1128   1.937       .  S
C1120     Br1124   1.935       .  S
C1129      C1130   1.429       .  A
C1129      C1134   1.426       .  A
C1130      C1131   1.416       .  A
C1130     Br1142   1.933       .  S
C1131      C1132   1.406       .  A
C1131     Br1146   1.933       .  S
C1132      C1135   1.497       .  S
C1132      C1133   1.406       .  A
C1133      C1134   1.414       .  A
C1133     Br1141   1.932       .  S
C1134     Br1145   1.934       .  S
C1135      C1136   1.414       .  A
C1135      C1140   1.411       .  A
C1136      C1137   1.414       .  A
C1136     Br1147   1.926       .  S
C1137      C1138   1.409       .  A
C1137     Br1143   1.929       .  S
C1138      C1139   1.409       .  A
C1139      C1140   1.408       .  A
C1139     Br1148   1.929       .  S
C1140     Br1144   1.930       .  S
C1149      C1150   1.412       .  A
C1149      C1154   1.411       .  A
C1150      C1151   1.411       .  A
C1150     Br1162   1.928       .  S
C1151      C1152   1.409       .  A
C1151     Br1166   1.928       .  S
C1152      C1155   1.487       .  S
C1152      C1153   1.408       .  A
C1153      C1154   1.407       .  A
C1153     Br1161   1.932       .  S
C1154     Br1165   1.926       .  S
C1155      C1156   1.409       .  A
C1155      C1160   1.409       .  A
C1156      C1157   1.405       .  A
C1156     Br1167   1.932       .  S
C1157      C1158   1.413       .  A
C1157     Br1163   1.933       .  S
C1158      C1159   1.410       .  A
C1159      C1160   1.411       .  A
C1159     Br1168   1.926       .  S
C1160     Br1164   1.927       .  S
C1169      C1170   1.410       .  A
C1169      C1174   1.414       .  A
C1170      C1171   1.417       .  A
C1170     Br1182   1.927       .  S
C1171      C1172   1.413       .  A
C1171     Br1186   1.925       .  S
C1172      C1175   1.498       .  S
C1172      C1173   1.409       .  A
C1173      C1174   1.409       .  A
C1173     Br1181   1.933       .  S
C1174     Br1185   1.928       .  S
C1175      C1176   1.411       .  A
C1175      C1180   1.411       .  A
C1176      C1177   1.414       .  A
C1176     Br1187   1.928       .  S
C1177      C1178   1.412       .  A
C1177     Br1183   1.928       .  S
C1178      C1179   1.412       .  A
C1179      C1180   1.413       .  A
C1179     Br1188   1.929       .  S
C1180     Br1184   1.929       .  S
C1189      C1190   1.414       .  A
C1189      C1194   1.415       .  A
C1190      C1191   1.411       .  A
C1190     Br1202   1.927       .  S
C1191      C1192   1.408       .  A
C1191     Br1206   1.929       .  S
C1192      C1195   1.492       .  S
C1192      C1193   1.409       .  A
C1193      C1194   1.410       .  A
C1193     Br1201   1.930       .  S
C1194     Br1205   1.931       .  S
C1195      C1196   1.408       .  A
C1195      C1200   1.410       .  A
C1196      C1197   1.409       .  A
C1196     Br1207   1.928       .  S
C1197      C1198   1.414       .  A
C1197     Br1203   1.930       .  S
C1198      C1199   1.416       .  A
C1199      C1200   1.412       .  A
C1199     Br1208   1.929       .  S
C1200     Br1204   1.931       .  S
C1209      C1210   1.416       .  A
C1209      C1214   1.420       .  A
C1210      C1211   1.406       .  A
C1210     Br1222   1.929       .  S
C1211      C1212   1.407       .  A
C1211     Br1226   1.934       .  S
C1212      C1215   1.483       .  S
C1212      C1213   1.406       .  A
C1213      C1214   1.410       .  A
C1213     Br1221   1.929       .  S
C1214     Br1225   1.933       .  S
C1215      C1216   1.410       .  A
C1215      C1220   1.408       .  A
C1216      C1217   1.410       .  A
C1216     Br1227   1.925       .  S
C1217      C1218   1.407       .  A
C1217     Br1223   1.927       .  S
C1218      C1219   1.407       .  A
C1219      C1220   1.402       .  A
C1219     Br1228   1.928       .  S
C1220     Br1224   1.929       .  S
C1229      C1230   1.414       .  A
C1229      C1234   1.413       .  A
C1230      C1231   1.406       .  A
C1230     Br1242   1.909       .  S
C1231      C1232   1.405       .  A
C1231     Br1246   1.937       .  S
C1232      C1235   1.496       .  S
C1232      C1233   1.414       .  A
C1233      C1234   1.418       .  A
C1233     Br1241   1.927       .  S
C1234     Br1245   1.925       .  S
C1235      C1236   1.406       .  A
C1235      C1240   1.412       .  A
C1236      C1237   1.409       .  A
C1236     Br1247   1.932       .  S
C1237      C1238   1.417       .  A
C1237     Br1243   1.922       .  S
C1238      C1239   1.418       .  A
C1239      C1240   1.415       .  A
C1239     Br1248   1.932       .  S
C1240     Br1244   1.930       .  S
C1249      C1250   1.419       .  A
C1249      C1254   1.416       .  A
C1250      C1251   1.414       .  A
C1250     Br1262   1.929       .  S
C1251      C1252   1.410       .  A
C1251     Br1266   1.933       .  S
C1252      C1255   1.504       .  S
C1252      C1253   1.411       .  A
C1253      C1254   1.418       .  A
C1253     Br1261   1.928       .  S
C1254     Br1265   1.928       .  S
C1255      C1256   1.412       .  A
C1255      C1260   1.414       .  A
C1256      C1257   1.413       .  A
C1256     Br1267   1.928       .  S
C1257      C1258   1.411       .  A
C1257     Br1263   1.928       .  S
C1258      C1259   1.410       .  A
C1259      C1260   1.416       .  A
C1259     Br1268   1.928       .  S
C1260     Br1264   1.927       .  S
C1269      C1270   1.413       .  A
C1269      C1274   1.410       .  A
C1270      C1271   1.410       .  A
C1270     Br1282   1.931       .  S
C1271      C1272   1.412       .  A
C1271     Br1286   1.933       .  S
C1272      C1275   1.500       .  S
C1272      C1273   1.413       .  A
C1273      C1274   1.416       .  A
C1273     Br1281   1.926       .  S
C1274     Br1285   1.928       .  S
C1275      C1276   1.410       .  A
C1275      C1280   1.411       .  A
C1276      C1277   1.413       .  A
C1276     Br1287   1.930       .  S
C1277      C1278   1.417       .  A
C1277     Br1283   1.931       .  S
C1278      C1279   1.411       .  A
C1279      C1280   1.414       .  A
C1279     Br1288   1.924       .  S
C1280     Br1284   1.927       .  S
C1289      C1290   1.419       .  A
C1289      C1294   1.422       .  A
C1290      C1291   1.410       .  A
C1290     Br1302   1.932       .  S
C1291      C1292   1.405       .  A
C1291     Br1306   1.929       .  S
C1292      C1295   1.488       .  S
C1292      C1293   1.407       .  A
C1293      C1294   1.410       .  A
C1293     Br1301   1.935       .  S
C1294     Br1305   1.933       .  S
C1295      C1296   1.410       .  A
C1295      C1300   1.409       .  A
C1296      C1297   1.409       .  A
C1296     Br1307   1.928       .  S
C1297      C1298   1.409       .  A
C1297     Br1303   1.930       .  S
C1298      C1299   1.412       .  A
C1299      C1300   1.408       .  A
C1299     Br1308   1.930       .  S
C1300     Br1304   1.931       .  S
C1309      C1310   1.408       .  A
C1309      C1314   1.410       .  A
C1310      C1311   1.408       .  A
C1310     Br1322   1.930       .  S
C1311      C1312   1.411       .  A
C1311     Br1326   1.929       .  S
C1312      C1315   1.484       .  S
C1312      C1313   1.408       .  A
C1313      C1314   1.406       .  A
C1313     Br1321   1.929       .  S
C1314     Br1325   1.928       .  S
C1315      C1316   1.409       .  A
C1315      C1320   1.409       .  A
C1316      C1317   1.410       .  A
C1316     Br1327   1.927       .  S
C1317      C1318   1.410       .  A
C1317     Br1323   1.927       .  S
C1318      C1319   1.411       .  A
C1319      C1320   1.405       .  A
C1319     Br1328   1.931       .  S
C1320     Br1324   1.932       .  S
C1329      C1330   1.411       .  A
C1329      C1334   1.409       .  A
C1330      C1331   1.403       .  A
C1330     Br1342   1.931       .  S
C1331      C1332   1.408       .  A
C1331     Br1346   1.933       .  S
C1332      C1335   1.485       .  S
C1332      C1333   1.410       .  A
C1333      C1334   1.412       .  A
C1333     Br1341   1.926       .  S
C1334     Br1345   1.927       .  S
C1335      C1336   1.408       .  A
C1335      C1340   1.411       .  A
C1336      C1337   1.409       .  A
C1336     Br1347   1.928       .  S
C1337      C1338   1.411       .  A
C1337     Br1343   1.928       .  S
C1338      C1339   1.407       .  A
C1339      C1340   1.407       .  A
C1339     Br1348   1.930       .  S
C1340     Br1344   1.930       .  S
C1349      C1350   1.411       .  A
C1349      C1354   1.414       .  A
C1350      C1351   1.412       .  A
C1350     Br1362   1.929       .  S
C1351      C1352   1.411       .  A
C1351     Br1366   1.929       .  S
C1352      C1355   1.491       .  S
C1352      C1353   1.409       .  A
C1353      C1354   1.407       .  A
C1353     Br1361   1.935       .  S
C1354     Br1365   1.929       .  S
C1355      C1356   1.411       .  A
C1355      C1360   1.412       .  A
C1356      C1357   1.408       .  A
C1356     Br1367   1.932       .  S
C1357      C1358   1.411       .  A
C1357     Br1363   1.929       .  S
C1358      C1359   1.409       .  A
C1359      C1360   1.409       .  A
C1359     Br1368   1.930       .  S
C1360     Br1364   1.930       .  S
C1369      C1370   1.415       .  A
C1369      C1374   1.413       .  A
C1370      C1371   1.409       .  A
C1370     Br1382   1.930       .  S
C1371      C1372   1.407       .  A
C1371     Br1386   1.929       .  S
C1372      C1375   1.483       .  S
C1372      C1373   1.407       .  A
C1373      C1374   1.406       .  A
C1373     Br1381   1.931       .  S
C1374     Br1385   1.928       .  S
C1375      C1376   1.409       .  A
C1375      C1380   1.409       .  A
C1376      C1377   1.403       .  A
C1376     Br1387   1.934       .  S
C1377      C1378   1.411       .  A
C1377     Br1383   1.932       .  S
C1378      C1379   1.408       .  A
C1379      C1380   1.409       .  A
C1379     Br1388   1.927       .  S
C1380     Br1384   1.925       .  S
C1389      C1390   1.409       .  A
C1389      C1394   1.411       .  A
C1390      C1391   1.415       .  A
C1390     Br1402   1.928       .  S
C1391      C1392   1.414       .  A
C1391     Br1406   1.926       .  S
C1392      C1395   1.500       .  S
C1392      C1393   1.412       .  A
C1393      C1394   1.410       .  A
C1393     Br1401   1.931       .  S
C1394     Br1405   1.929       .  S
C1395      C1396   1.410       .  A
C1395      C1400   1.409       .  A
C1396      C1397   1.416       .  A
C1396     Br1407   1.929       .  S
C1397      C1398   1.417       .  A
C1397     Br1403   1.930       .  S
C1398      C1399   1.422       .  A
C1399      C1400   1.413       .  A
C1399     Br1408   1.932       .  S
C1400     Br1404   1.933       .  S
C1409      C1410   1.416   1_655  A
C1409      C1414   1.417       .  A
C1410      C1411   1.413       .  A
C1410     Br1422   1.929       .  S
C1411      C1412   1.410       .  A
C1411     Br1426   1.930       .  S
C1412      C1415   1.491       .  S
C1412      C1413   1.407       .  A
C1413      C1414   1.408   1_455  A
C1413     Br1421   1.932       .  S
C1414     Br1425   1.927       .  S
C1415      C1416   1.408       .  A
C1415      C1420   1.413       .  A
C1416      C1417   1.404       .  A
C1416     Br1427   1.937       .  S
C1417      C1418   1.413       .  A
C1417     Br1423   1.921       .  S
C1418      C1419   1.409       .  A
C1419      C1420   1.414       .  A
C1419     Br1428   1.927       .  S
C1420     Br1424   1.925       .  S
C1429      C1430   1.408       .  A
C1429      C1434   1.410       .  A
C1430      C1431   1.407       .  A
C1430     Br1442   1.929       .  S
C1431      C1432   1.412       .  A
C1431     Br1446   1.929       .  S
C1432      C1435   1.486       .  S
C1432      C1433   1.409       .  A
C1433      C1434   1.406       .  A
C1433     Br1441   1.927       .  S
C1434     Br1445   1.932       .  S
C1435      C1436   1.411       .  A
C1435      C1440   1.409       .  A
C1436      C1437   1.413       .  A
C1436     Br1447   1.928       .  S
C1437      C1438   1.411       .  A
C1437     Br1443   1.927       .  S
C1438      C1439   1.412       .  A
C1439      C1440   1.404       .  A
C1439     Br1448   1.931       .  S
C1440     Br1444   1.936       .  S
C1449      C1450   1.413       .  A
C1449      C1454   1.409       .  A
C1450      C1451   1.407       .  A
C1450     Br1462   1.930       .  S
C1451      C1452   1.408       .  A
C1451     Br1466   1.932       .  S
C1452      C1455   1.491       .  S
C1452      C1453   1.412       .  A
C1453      C1454   1.413       .  A
C1453     Br1461   1.926       .  S
C1454     Br1465   1.928       .  S
C1455      C1456   1.410       .  A
C1455      C1460   1.408       .  A
C1456      C1457   1.413       .  A
C1456     Br1467   1.928       .  S
C1457      C1458   1.415       .  A
C1457     Br1463   1.931       .  S
C1458      C1459   1.414       .  A
C1459      C1460   1.409       .  A
C1459     Br1468   1.925       .  S
C1460     Br1464   1.933       .  S
C1469      C1470   1.405       .  A
C1469      C1474   1.407       .  A
C1470      C1471   1.407       .  A
C1470     Br1482   1.928       .  S
C1471      C1472   1.412       .  A
C1471     Br1486   1.927       .  S
C1472      C1475   1.487       .  S
C1472      C1473   1.412       .  A
C1473      C1474   1.406       .  A
C1473     Br1481   1.930       .  S
C1474     Br1485   1.928       .  S
C1475      C1476   1.407       .  A
C1475      C1480   1.406       .  A
C1476      C1477   1.406       .  A
C1476     Br1487   1.936       .  S
C1477      C1478   1.421       .  A
C1477     Br1483   1.934       .  S
C1478      C1479   1.425       .  A
C1479      C1480   1.413       .  A
C1479     Br1488   1.933       .  S
C1480     Br1484   1.932       .  S
C1489      C1490   1.410       .  A
C1489      C1494   1.412   1_655  A
C1490      C1491   1.414   1_655  A
C1490     Br1502   1.928       .  S
C1491      C1492   1.413       .  A
C1491     Br1506   1.927       .  S
C1492      C1495   1.498       .  S
C1492      C1493   1.411       .  A
C1493      C1494   1.410       .  A
C1493     Br1501   1.931       .  S
C1494     Br1505   1.931       .  S
C1495      C1496   1.410       .  A
C1495      C1500   1.407       .  A
C1496      C1497   1.416       .  A
C1496     Br1507   1.929       .  S
C1497      C1498   1.417       .  A
C1497     Br1503   1.929       .  S
C1498      C1499   1.422       .  A
C1499      C1500   1.412       .  A
C1499     Br1508   1.931       .  S
C1500     Br1504   1.933       .  S
C1509      C1510   1.411       .  A
C1509      C1514   1.408   1_545  A
C1510      C1511   1.414       .  A
C1510     Br1522   1.927       .  S
C1511      C1512   1.411   1_545  A
C1511     Br1526   1.928       .  S
C1512      C1515   1.494       .  S
C1512      C1513   1.411       .  A
C1513      C1514   1.408       .  A
C1513     Br1521   1.929       .  S
C1514     Br1525   1.929       .  S
C1515      C1516   1.410       .  A
C1515      C1520   1.409       .  A
C1516      C1517   1.412       .  A
C1516     Br1527   1.927       .  S
C1517      C1518   1.413       .  A
C1517     Br1523   1.930       .  S
C1518      C1519   1.414       .  A
C1519      C1520   1.410       .  A
C1519     Br1528   1.930       .  S
C1520     Br1524   1.931       .  S
C1529      C1530   1.417       .  A
C1529      C1534   1.415       .  A
C1530      C1531   1.400       .  A
C1530     Br1542   1.936       .  S
C1531      C1532   1.405       .  A
C1531     Br1546   1.936       .  S
C1532      C1535   1.479       .  S
C1532      C1533   1.407       .  A
C1533      C1534   1.411       .  A
C1533     Br1541   1.927       .  S
C1534     Br1545   1.927       .  S
C1535      C1536   1.409       .  A
C1535      C1540   1.408       .  A
C1536      C1537   1.405       .  A
C1536     Br1547   1.932       .  S
C1537      C1538   1.410       .  A
C1537     Br1543   1.930       .  S
C1538      C1539   1.410       .  A
C1539      C1540   1.406       .  A
C1539     Br1548   1.931       .  S
C1540     Br1544   1.926       .  S
C1549      C1550   1.412   1_545  A
C1549      C1554   1.414       .  A
C1550      C1551   1.416   1_565  A
C1550     Br1562   1.928       .  S
C1551      C1552   1.413       .  A
C1551     Br1566   1.928       .  S
C1552      C1555   1.506       .  S
C1552      C1553   1.412       .  A
C1553      C1554   1.416       .  A
C1553     Br1561   1.930       .  S
C1554     Br1565   1.929       .  S
C1555      C1556   1.413       .  A
C1555      C1560   1.412       .  A
C1556      C1557   1.417       .  A
C1556     Br1567   1.926       .  S
C1557      C1558   1.412       .  A
C1557     Br1563   1.928       .  S
C1558      C1559   1.415       .  A
C1559      C1560   1.414       .  A
C1559     Br1568   1.929       .  S
C1560     Br1564   1.930       .  S
C1569      C1570   1.416       .  A
C1569      C1574   1.422       .  A
C1570      C1571   1.413       .  A
C1570     Br1582   1.932       .  S
C1571      C1572   1.411       .  A
C1571     Br1586   1.929       .  S
C1572      C1575   1.497       .  S
C1572      C1573   1.407       .  A
C1573      C1574   1.412       .  A
C1573     Br1581   1.932       .  S
C1574     Br1585   1.932       .  S
C1575      C1576   1.408       .  A
C1575      C1580   1.410       .  A
C1576      C1577   1.414       .  A
C1576     Br1587   1.931       .  S
C1577      C1578   1.414       .  A
C1577     Br1583   1.912       .  S
C1578      C1579   1.414       .  A
C1579      C1580   1.412       .  A
C1579     Br1588   1.925       .  S
C1580     Br1584   1.931       .  S
C1589      C1590   1.411       .  A
C1589      C1594   1.413       .  A
C1590      C1591   1.412       .  A
C1590     Br1602   1.929       .  S
C1591      C1592   1.412       .  A
C1591     Br1606   1.928       .  S
C1592      C1595   1.498       .  S
C1592      C1593   1.410       .  A
C1593      C1594   1.414       .  A
C1593     Br1601   1.929       .  S
C1594     Br1605   1.927   1_455  S
C1595      C1596   1.407       .  A
C1595      C1600   1.408       .  A
C1596      C1597   1.412       .  A
C1596     Br1607   1.933       .  S
C1597      C1598   1.426       .  A
C1597     Br1603   1.936       .  S
C1598      C1599   1.419       .  A
C1599      C1600   1.414       .  A
C1599     Br1608   1.932       .  S
C1600     Br1604   1.927       .  S
C1609      C1610   1.411       .  A
C1609      C1614   1.414       .  A
C1610      C1611   1.413       .  A
C1610     Br1622   1.928       .  S
C1611      C1612   1.412       .  A
C1611     Br1626   1.928       .  S
C1612      C1615   1.494       .  S
C1612      C1613   1.410       .  A
C1613      C1614   1.408       .  A
C1613     Br1621   1.933       .  S
C1614     Br1625   1.930       .  S
C1615      C1616   1.413       .  A
C1615      C1620   1.411       .  A
C1616      C1617   1.413       .  A
C1616     Br1627   1.927       .  S
C1617      C1618   1.410       .  A
C1617     Br1623   1.929       .  S
C1618      C1619   1.415       .  A
C1619      C1620   1.407       .  A
C1619     Br1628   1.934       .  S
C1620     Br1624   1.934       .  S
C1629      C1630   1.422       .  A
C1629      C1634   1.422       .  A
C1630      C1631   1.404       .  A
C1630     Br1642   1.933       .  S
C1631      C1632   1.404       .  A
C1631     Br1646   1.937       .  S
C1632      C1635   1.476       .  S
C1632      C1633   1.404       .  A
C1633      C1634   1.407       .  A
C1633     Br1641   1.932       .  S
C1634     Br1645   1.933       .  S
C1635      C1636   1.404       .  A
C1635      C1640   1.405       .  A
C1636      C1637   1.402       .  A
C1636     Br1647   1.935       .  S
C1637      C1638   1.416       .  A
C1637     Br1643   1.921       .  S
C1638      C1639   1.412       .  A
C1639      C1640   1.407       .  A
C1639     Br1648   1.910       .  S
C1640     Br1644   1.930       .  S
C1649      C1650   1.409       .  A
C1649      C1654   1.410       .  A
C1650      C1651   1.408       .  A
C1650     Br1662   1.928       .  S
C1651      C1652   1.410       .  A
C1651     Br1666   1.930       .  S
C1652      C1655   1.490       .  S
C1652      C1653   1.410       .  A
C1653      C1654   1.411       .  A
C1653     Br1661   1.928       .  S
C1654     Br1665   1.929       .  S
C1655      C1656   1.411       .  A
C1655      C1660   1.411       .  A
C1656      C1657   1.413       .  A
C1656     Br1667   1.927       .  S
C1657      C1658   1.411       .  A
C1657     Br1663   1.928       .  S
C1658      C1659   1.408       .  A
C1659      C1660   1.404       .  A
C1659     Br1668   1.932       .  S
C1660     Br1664   1.929       .  S
C1669      C1670   1.417       .  A
C1669      C1674   1.418       .  A
C1670      C1671   1.412       .  A
C1670     Br1682   1.930       .  S
C1671      C1672   1.410       .  A
C1671     Br1686   1.931       .  S
C1672      C1675   1.498       .  S
C1672      C1673   1.409       .  A
C1673      C1674   1.414       .  A
C1673     Br1681   1.929       .  S
C1674     Br1685   1.932       .  S
C1675      C1676   1.412       .  A
C1675      C1680   1.408       .  A
C1676      C1677   1.415       .  A
C1676     Br1687   1.930       .  S
C1677      C1678   1.416       .  A
C1677     Br1683   1.930       .  S
C1678      C1679   1.415       .  A
C1679      C1680   1.410       .  A
C1679     Br1688   1.927       .  S
C1680     Br1684   1.929       .  S
C1689      C1690   1.416       .  A
C1689      C1694   1.416       .  A
C1690      C1691   1.415       .  A
C1690     Br1702   1.929       .  S
C1691      C1692   1.411       .  A
C1691     Br1706   1.930       .  S
C1692      C1695   1.499       .  S
C1692      C1693   1.409       .  A
C1693      C1694   1.412       .  A
C1693     Br1701   1.929       .  S
C1694     Br1705   1.929   1_565  S
C1695      C1696   1.410       .  A
C1695      C1700   1.412       .  A
C1696      C1697   1.410       .  A
C1696     Br1707   1.933       .  S
C1697      C1698   1.416       .  A
C1697     Br1703   1.930       .  S
C1698      C1699   1.413       .  A
C1699      C1700   1.416       .  A
C1699     Br1708   1.929       .  S
C1700     Br1704   1.927       .  S
C1709      C1710   1.414       .  A
C1709      C1714   1.419       .  A
C1710      C1711   1.413       .  A
C1710     Br1722   1.929       .  S
C1711      C1712   1.410       .  A
C1711     Br1726   1.929       .  S
C1712      C1715   1.494       .  S
C1712      C1713   1.408       .  A
C1713      C1714   1.410       .  A
C1713     Br1721   1.933       .  S
C1714     Br1725   1.930       .  S
C1715      C1716   1.410       .  A
C1715      C1720   1.409       .  A
C1716      C1717   1.412       .  A
C1716     Br1727   1.929       .  S
C1717      C1718   1.414       .  A
C1717     Br1723   1.930   1_655  S
C1718      C1719   1.416       .  A
C1719      C1720   1.410       .  A
C1719     Br1728   1.932       .  S
C1720     Br1724   1.932       .  S
C1729      C1730   1.411       .  A
C1729      C1734   1.411       .  A
C1730      C1731   1.409       .  A
C1730     Br1742   1.929       .  S
C1731      C1732   1.410       .  A
C1731     Br1746   1.928       .  S
C1732      C1735   1.481       .  S
C1732      C1733   1.408       .  A
C1733      C1734   1.402       .  A
C1733     Br1741   1.933       .  S
C1734     Br1745   1.928       .  S
C1735      C1736   1.410       .  A
C1735      C1740   1.409       .  A
C1736      C1737   1.404       .  A
C1736     Br1747   1.932       .  S
C1737      C1738   1.406       .  A
C1737     Br1743   1.928       .  S
C1738      C1739   1.410       .  A
C1739      C1740   1.408       .  A
C1739     Br1748   1.929       .  S
C1740     Br1744   1.930       .  S
C1749      C1750   1.412       .  A
C1749      C1754   1.409       .  A
C1750      C1751   1.407       .  A
C1750     Br1762   1.931       .  S
C1751      C1752   1.411       .  A
C1751     Br1766   1.933       .  S
C1752      C1755   1.491       .  S
C1752      C1753   1.412       .  A
C1753      C1754   1.411       .  A
C1753     Br1761   1.928       .  S
C1754     Br1765   1.928   1_545  S
C1755      C1756   1.410       .  A
C1755      C1760   1.412       .  A
C1756      C1757   1.407       .  A
C1756     Br1767   1.932       .  S
C1757      C1758   1.412       .  A
C1757     Br1763   1.930       .  S
C1758      C1759   1.410       .  A
C1759      C1760   1.411       .  A
C1759     Br1768   1.929       .  S
C1760     Br1764   1.928       .  S
C1769      C1770   1.410       .  A
C1769      C1774   1.413       .  A
C1770      C1771   1.409       .  A
C1770     Br1782   1.929       .  S
C1771      C1772   1.412       .  A
C1771     Br1786   1.930       .  S
C1772      C1775   1.493       .  S
C1772      C1773   1.410       .  A
C1773      C1774   1.413       .  A
C1773     Br1781   1.928       .  S
C1774     Br1785   1.927       .  S
C1775      C1776   1.412       .  A
C1775      C1780   1.409       .  A
C1776      C1777   1.414       .  A
C1776     Br1787   1.925       .  S
C1777      C1778   1.409       .  A
C1777     Br1783   1.929       .  S
C1778      C1779   1.410       .  A
C1779      C1780   1.405       .  A
C1779     Br1788   1.931       .  S
C1780     Br1784   1.928       .  S
C1789      C1790   1.409       .  A
C1789      C1794   1.411       .  A
C1790      C1791   1.408       .  A
C1790     Br1802   1.930       .  S
C1791      C1792   1.409       .  A
C1791     Br1806   1.926       .  S
C1792      C1795   1.483       .  S
C1792      C1793   1.409       .  A
C1793      C1794   1.405       .  A
C1793     Br1801   1.932       .  S
C1794     Br1805   1.930       .  S
C1795      C1796   1.405       .  A
C1795      C1800   1.408       .  A
C1796      C1797   1.409   1_655  A
C1796     Br1807   1.932   1_655  S
C1797      C1798   1.419       .  A
C1797     Br1803   1.932       .  S
C1798      C1799   1.416   1_455  A
C1799      C1800   1.408       .  A
C1799     Br1808   1.931       .  S
C1800     Br1804   1.931       .  S
C1809      C1810   1.413       .  A
C1809      C1814   1.407       .  A
C1810      C1811   1.406       .  A
C1810     Br1822   1.930       .  S
C1811      C1812   1.409       .  A
C1811     Br1826   1.933       .  S
C1812      C1815   1.487       .  S
C1812      C1813   1.411       .  A
C1813      C1814   1.410       .  A
C1813     Br1821   1.927       .  S
C1814     Br1825   1.928   1_545  S
C1815      C1816   1.406       .  A
C1815      C1820   1.406       .  A
C1816      C1817   1.410       .  A
C1816     Br1827   1.933       .  S
C1817      C1818   1.423       .  A
C1817     Br1823   1.932       .  S
C1818      C1819   1.419       .  A
C1819      C1820   1.409       .  A
C1819     Br1828   1.933       .  S
C1820     Br1824   1.933       .  S
C1829      C1830   1.412       .  A
C1829      C1834   1.412       .  A
C1830      C1831   1.415       .  A
C1830     Br1842   1.928       .  S
C1831      C1832   1.412       .  A
C1831     Br1846   1.927       .  S
C1832      C1835   1.492       .  S
C1832      C1833   1.410       .  A
C1833      C1834   1.405       .  A
C1833     Br1841   1.934       .  S
C1834     Br1845   1.932       .  S
C1835      C1836   1.409       .  A
C1835      C1840   1.410       .  A
C1836      C1837   1.408       .  A
C1836     Br1847   1.932       .  S
C1837      C1838   1.413       .  A
C1837     Br1843   1.929       .  S
C1838      C1839   1.414       .  A
C1839      C1840   1.413       .  A
C1839     Br1848   1.930       .  S
C1840     Br1844   1.928       .  S
C1849      C1850   1.411       .  A
C1849      C1854   1.415       .  A
C1850      C1851   1.410       .  A
C1850     Br1862   1.929       .  S
C1851      C1852   1.410       .  A
C1851     Br1866   1.927       .  S
C1852      C1855   1.491       .  S
C1852      C1853   1.409       .  A
C1853      C1854   1.409       .  A
C1853     Br1861   1.930       .  S
C1854     Br1865   1.932       .  S
C1855      C1856   1.412       .  A
C1855      C1860   1.409       .  A
C1856      C1857   1.415       .  A
C1856     Br1867   1.925       .  S
C1857      C1858   1.410       .  A
C1857     Br1863   1.927   1_655  S
C1858      C1859   1.413       .  A
C1859      C1860   1.406       .  A
C1859     Br1868   1.928       .  S
C1860     Br1864   1.935       .  S
C1869      C1870   1.412       .  A
C1869      C1874   1.409       .  A
C1870      C1871   1.403       .  A
C1870     Br1882   1.931       .  S
C1871      C1872   1.408       .  A
C1871     Br1886   1.933       .  S
C1872      C1875   1.480       .  S
C1872      C1873   1.409       .  A
C1873      C1874   1.409       .  A
C1873     Br1881   1.927       .  S
C1874     Br1885   1.928       .  S
C1875      C1876   1.408       .  A
C1875      C1880   1.405       .  A
C1876      C1877   1.408       .  A
C1876     Br1887   1.931       .  S
C1877      C1878   1.414       .  A
C1877     Br1883   1.931       .  S
C1878      C1879   1.414       .  A
C1879      C1880   1.405       .  A
C1879     Br1888   1.927       .  S
C1880     Br1884   1.931       .  S
C1889      C1890   1.412       .  A
C1889      C1894   1.413       .  A
C1890      C1891   1.401       .  A
C1890     Br1902   1.924       .  S
C1891      C1892   1.406       .  A
C1891     Br1906   1.934       .  S
C1892      C1895   1.477       .  S
C1892      C1893   1.408       .  A
C1893      C1894   1.408       .  A
C1893     Br1901   1.929       .  S
C1894     Br1905   1.930       .  S
C1895      C1896   1.409       .  A
C1895      C1900   1.407       .  A
C1896      C1897   1.409       .  A
C1896     Br1907   1.927       .  S
C1897      C1898   1.408       .  A
C1897     Br1903   1.927       .  S
C1898      C1899   1.410       .  A
C1899      C1900   1.399       .  A
C1899     Br1908   1.928       .  S
C1900     Br1904   1.936       .  S
C1909      C1910   1.418       .  A
C1909      C1914   1.413       .  A
C1910      C1911   1.409       .  A
C1910     Br1922   1.929       .  S
C1911      C1912   1.406       .  A
C1911     Br1926   1.934       .  S
C1912      C1915   1.491       .  S
C1912      C1913   1.410       .  A
C1913      C1914   1.414       .  A
C1913     Br1921   1.927       .  S
C1914     Br1925   1.928       .  S
C1915      C1916   1.410       .  A
C1915      C1920   1.411       .  A
C1916      C1917   1.407       .  A
C1916     Br1927   1.931       .  S
C1917      C1918   1.411   1_565  A
C1917     Br1923   1.931       .  S
C1918      C1919   1.410       .  A
C1919      C1920   1.412   1_545  A
C1919     Br1928   1.929       .  S
C1920     Br1924   1.926       .  S
C1929      C1930   1.416       .  A
C1929      C1934   1.413       .  A
C1930      C1931   1.403       .  A
C1930     Br1942   1.934       .  S
C1931      C1932   1.407       .  A
C1931     Br1946   1.936       .  S
C1932      C1935   1.484       .  S
C1932      C1933   1.410       .  A
C1933      C1934   1.412       .  A
C1933     Br1941   1.927       .  S
C1934     Br1945   1.929       .  S
C1935      C1936   1.409       .  A
C1935      C1940   1.407       .  A
C1936      C1937   1.408       .  A
C1936     Br1947   1.928       .  S
C1937      C1938   1.412       .  A
C1937     Br1943   1.931       .  S
C1938      C1939   1.413       .  A
C1939      C1940   1.407       .  A
C1939     Br1948   1.926       .  S
C1940     Br1944   1.932       .  S
C1949      C1950   1.421       .  A
C1949      C1954   1.418       .  A
C1950      C1951   1.414       .  A
C1950     Br1962   1.932       .  S
C1951      C1952   1.410       .  A
C1951     Br1966   1.932       .  S
C1952      C1955   1.500       .  S
C1952      C1953   1.410       .  A
C1953      C1954   1.413       .  A
C1953     Br1961   1.930       .  S
C1954     Br1965   1.932       .  S
C1955      C1956   1.413       .  A
C1955      C1960   1.414       .  A
C1956      C1957   1.409       .  A
C1956     Br1967   1.932       .  S
C1957      C1958   1.408       .  A
C1957     Br1963   1.929       .  S
C1958      C1959   1.410       .  A
C1959      C1960   1.416       .  A
C1959     Br1968   1.929       .  S
C1960     Br1964   1.928       .  S
