geometry optimzed in LAMMPS
_audit_creation_date              2020-12-01 
_audit_creation_method            'lammps2cif' 
_symmetry_space_group_name_H-M    'P1' 
_symmetry_Int_Tables_number       1 
_symmetry_cell_setting            triclinic 
loop_ 
_symmetry_equiv_pos_as_xyz 
  x,y,z 
_cell_length_a                    78.19673868 
_cell_length_b                    78.20123025073393 
_cell_length_c                    39.626720212911515 
_cell_angle_alpha                 90.00023232583011 
_cell_angle_beta                  89.9537994359613 
_cell_angle_gamma                 90.06435608976514 
loop_ 
_atom_site_label 
_atom_site_type_symbol 
_atom_site_fract_x 
_atom_site_fract_y 
_atom_site_fract_z 
_atom_site_charge 
O1          O  0.62976257  0.83665390  0.15309050    -0.78300
C2          C  0.62229852  0.88155714  0.08553600     0.82700
O3          O  0.66581900  0.88162543  0.19358938    -0.79400
O4          O  0.61606388  0.91836261  0.17389349    -0.80900
O5          O  0.58254944  0.86766647  0.19513468    -0.80700
O6          O  0.61153977  0.83554006  0.19613834    -0.79300
Zn7        Zn  0.63539527  0.86162264  0.14632638     1.55700
O8          O  0.58439211  0.89013616  0.16070834    -0.80700
Cd9        Cd  0.60781171  0.86152139  0.20611681     1.59700
Cd10       Cd  0.64094436  0.88709029  0.20898115     1.59600
O11         O  0.61196258  0.86610088  0.25707011    -0.80700
O12         O  0.62372654  0.87596696  0.17871450    -1.91200
Cd13       Cd  0.61038910  0.89416179  0.15475933     1.59900
O14         O  0.63689421  0.87999518  0.25876865    -0.80700
O15         O  0.61499631  0.89304996  0.10326209    -0.79300
C16         C  0.67117547  0.87238158  0.16923330     0.83200
C17         C  0.62058768  0.82809586  0.17367197     0.82900
O18         O  0.62965889  0.86874006  0.09902783    -0.78300
C19         C  0.57553930  0.87923800  0.17710920     0.83700
O20         O  0.66083533  0.86425011  0.15030197    -0.78400
C21         C  0.62417341  0.87301087  0.27357134     0.83800
C22         C  0.62710390  0.92362014  0.19526836     0.84100
O23         O  0.63763740  0.91339083  0.20924254    -0.80800
O24         O  0.63329270  0.83835004  0.66222970    -0.78300
C25         C  0.62552361  0.88035856  0.58643777     0.82700
O26         O  0.67053915  0.88656280  0.68705271    -0.79400
O27         O  0.61951946  0.92099061  0.67013747    -0.80900
O28         O  0.58758708  0.87201455  0.70295470    -0.80700
O29         O  0.61612103  0.84034627  0.70677645    -0.79300
Zn30       Zn  0.63881406  0.86296274  0.65009178     1.55700
O31         O  0.58845032  0.89180975  0.66248739    -0.80700
Cd32       Cd  0.61305761  0.86650342  0.71190983     1.59700
Cd33       Cd  0.64621564  0.89143757  0.70629946     1.59600
O34         O  0.61916129  0.87279594  0.76099371    -0.80700
O35         O  0.62815049  0.87915856  0.68006011    -1.91200
Cd36       Cd  0.61426385  0.89608835  0.65375365     1.59900
O37         O  0.64475564  0.88526602  0.75706858    -0.80700
O38         O  0.61863643  0.89294165  0.60192280    -0.79300
C39         C  0.67504981  0.87590691  0.66434251     0.83200
C40         C  0.62438658  0.83137039  0.68545536     0.82900
O41         O  0.63226232  0.86793219  0.60238184    -0.78300
C42         C  0.58008783  0.88213839  0.68254480     0.83700
O43         O  0.66420773  0.86615181  0.65006881    -0.78400
C44         C  0.63244771  0.87926543  0.77462933     0.83800
C45         C  0.63056294  0.92700445  0.69076166     0.84100
O46         O  0.64159290  0.91742698  0.70501630    -0.80800
O47         O  0.86302164  0.83722006  0.08196629    -0.78300
C48         C  0.87145804  0.87959848  0.15369762     0.82700
O49         O  0.82627579  0.88141417  0.04578634    -0.79400
O50         O  0.87339821  0.92009010  0.06938174    -0.80900
O51         O  0.90986439  0.87132388  0.04320864    -0.80700
O52         O  0.88273963  0.83747555  0.04163187    -0.79300
Zn53       Zn  0.85738201  0.86190177  0.09120140     1.55700
O54         O  0.90702854  0.89362427  0.07788290    -0.80700
Cd55       Cd  0.88503007  0.86371380  0.03253031     1.59700
Cd56       Cd  0.85089727  0.88789421  0.03047559     1.59600
O57         O  0.88029078  0.86766949  0.98171017    -0.80700
O58         O  0.86853857  0.87729430  0.06028905    -1.91200
Cd59       Cd  0.88087470  0.89578568  0.08594900     1.59900
O60         O  0.85503556  0.88093569  0.98067090    -0.80700
O61         O  0.87718754  0.89267020  0.13795883    -0.79300
C62         C  0.82127660  0.87243499  0.07080661     0.83200
C63         C  0.87321037  0.82933662  0.06229736     0.82900
O64         O  0.86460815  0.86711695  0.13815712    -0.78300
C65         C  0.91634175  0.88330015  0.06101711     0.83700
O66         O  0.83189312  0.86469197  0.08973992    -0.78400
C67         C  0.86764642  0.87393956  0.96557315     0.83800
C68         C  0.86224034  0.92496302  0.04787346     0.84100
O69         O  0.85283626  0.91429533  0.03208828    -0.80800
O70         O  0.86930204  0.83584984  0.58039559    -0.78300
C71         C  0.87973350  0.87756355  0.65442223     0.82700
O72         O  0.83199756  0.88285669  0.55498791    -0.79400
O73         O  0.88267767  0.91857134  0.57135653    -0.80900
O74         O  0.91448077  0.86943197  0.53511886    -0.80700
O75         O  0.88604385  0.83726547  0.53509454    -0.79300
Zn76       Zn  0.86422752  0.86050593  0.59251326     1.55700
O77         O  0.91473447  0.88978013  0.57453948    -0.80700
Cd78       Cd  0.88890411  0.86343182  0.52844755     1.59700
Cd79       Cd  0.85605528  0.88848812  0.53576572     1.59600
O80         O  0.88192367  0.86917849  0.47940584    -0.80700
O81         O  0.87453107  0.87641542  0.56111869    -1.91200
Cd82       Cd  0.88902211  0.89357715  0.58588960     1.59900
O83         O  0.85748131  0.88360467  0.48444989    -0.80700
O84         O  0.88618305  0.89006545  0.63793800    -0.79300
C85         C  0.82778072  0.87309477  0.57939746     0.83200
C86         C  0.87794370  0.82857333  0.55716554     0.82900
O87         O  0.87220311  0.86524921  0.63952627    -0.78300
C88         C  0.92254780  0.87986197  0.55410669     0.83700
O89         O  0.83880322  0.86398102  0.59471084    -0.78400
C90         C  0.86907283  0.87671597  0.46633182     0.83800
C91         C  0.87053773  0.92433644  0.55301275     0.84100
O92         O  0.85951443  0.91446842  0.53955564    -0.80800
O93         O  0.86666763  0.16169516  0.41655517    -0.78300
C94         C  0.87734042  0.11815292  0.34750755     0.82700
O95         O  0.83214090  0.11558234  0.45492286    -0.79400
O96         O  0.88408271  0.08099484  0.43480090    -0.80900
O97         O  0.91454726  0.13333875  0.45940957    -0.80700
O98         O  0.88390593  0.16311804  0.46103403    -0.79300
Zn99       Zn  0.86255707  0.13660937  0.40864878     1.55700
O100        O  0.91474060  0.11100188  0.42448935    -0.80700
Cd101      Cd  0.88901703  0.13749304  0.46979500     1.59700
Cd102      Cd  0.85722136  0.11063046  0.47056596     1.59600
O103        O  0.88500233  0.13227934  0.52025499    -0.80700
O104        O  0.87431983  0.12257938  0.44113752    -1.91200
Cd105      Cd  0.88899929  0.10551425  0.41687899     1.59900
O106        O  0.86087583  0.11705439  0.52101102    -0.80700
O107        O  0.88485400  0.10669294  0.36498117    -0.79300
C108        C  0.82691541  0.12448795  0.42995107     0.83200
C109        C  0.87496817  0.17037645  0.43827082     0.82900
O110        O  0.86938095  0.13046900  0.36147208    -0.78300
C111        C  0.92258060  0.12245607  0.44145506     0.83700
O112        O  0.83733296  0.13268810  0.41129379    -0.78400
C113        C  0.87313345  0.12457962  0.53629158     0.83800
C114        C  0.87288257  0.07499657  0.45509717     0.84100
O115        O  0.86166514  0.08454091  0.46896829    -0.80800
O116        O  0.86617609  0.16474937  0.92030305    -0.78300
C117        C  0.86958225  0.12146779  0.84813167     0.82700
O118        O  0.82792365  0.11933712  0.95687941    -0.79400
O119        O  0.87638498  0.08200280  0.93201401    -0.80900
O120        O  0.91238029  0.12942653  0.95752731    -0.80700
O121        O  0.88618101  0.16297729  0.95992968    -0.79300
Zn122      Zn  0.85891029  0.14024354  0.91203568     1.55700
O123        O  0.90904728  0.10900407  0.91895034    -0.80700
Cd124      Cd  0.88755410  0.13694731  0.96888004     1.59700
Cd125      Cd  0.85291517  0.11297815  0.97156151     1.59600
O126        O  0.88273282  0.13314563  0.01944694    -0.80700
O127        O  0.87035378  0.12420661  0.94151398    -1.91200
Cd128      Cd  0.88265900  0.10634957  0.91455412     1.59900
O129        O  0.85776972  0.11923648  0.02176241    -0.80700
O130        O  0.87683804  0.10914717  0.86365587    -0.79300
C131        C  0.82289510  0.12966127  0.93394128     0.83200
C132        C  0.87705301  0.17180688  0.93981518     0.82900
O133        O  0.86322771  0.13416045  0.86384768    -0.78300
C134        C  0.91864159  0.11853604  0.93697390     0.83700
O135        O  0.83351995  0.13840588  0.91676605    -0.78400
C136        C  0.87047938  0.12647745  0.03616887     0.83800
C137        C  0.86559956  0.07650403  0.95370035     0.84100
O138        O  0.85555529  0.08659576  0.96942173    -0.80800
O139        O  0.63658846  0.16305313  0.32595298    -0.78300
C140        C  0.62759971  0.11961439  0.39773636     0.82700
O141        O  0.67381478  0.11608347  0.29528921    -0.79400
O142        O  0.62360843  0.08021022  0.31210808    -0.80900
O143        O  0.59142327  0.12954430  0.28169902    -0.80700
O144        O  0.61874806  0.16174392  0.28237693    -0.79300
Zn145      Zn  0.64226504  0.13807764  0.33605136     1.55700
O146        O  0.59178601  0.10868030  0.31996219    -0.80700
Cd147      Cd  0.61658711  0.13577099  0.27371313     1.59700
Cd148      Cd  0.64953669  0.11078066  0.27663726     1.59600
O149        O  0.62238006  0.13098566  0.22381608    -0.80700
O150        O  0.63165390  0.12245754  0.30434780    -1.91200
Cd151      Cd  0.61766306  0.10481654  0.32887755     1.59900
O152        O  0.64743612  0.11744642  0.22600584    -0.80700
O153        O  0.62136077  0.10717940  0.38081335    -0.79300
C154        C  0.67856873  0.12571368  0.31955586     0.83200
C155        C  0.62704924  0.17037998  0.30417746     0.82900
O156        O  0.63470503  0.13233479  0.38324077    -0.78300
C157        C  0.58368660  0.11889386  0.30063266     0.83700
O158        O  0.66786826  0.13474447  0.33604625    -0.78400
C159        C  0.63528965  0.12429799  0.20928464     0.83800
C160        C  0.63512807  0.07457052  0.29213242     0.84100
O161        O  0.64591177  0.08453154  0.27803013    -0.80800
O162        O  0.63239805  0.16507071  0.83011176    -0.78300
C163        C  0.62576472  0.12030734  0.89776584     0.82700
O164        O  0.67144082  0.12059553  0.79370706    -0.79400
O165        O  0.62253716  0.08241526  0.81078841    -0.80900
O166        O  0.58781303  0.13050661  0.78230980    -0.80700
O167        O  0.61402453  0.16425847  0.78739314    -0.79300
Zn168      Zn  0.63929769  0.14027111  0.83710245     1.55700
O169        O  0.58931495  0.10929696  0.81971672    -0.80700
Cd170      Cd  0.61291580  0.13844257  0.77579567     1.59700
Cd171      Cd  0.64707167  0.11433061  0.77599177     1.59600
O172        O  0.61948912  0.13570243  0.72566740    -0.80700
O173        O  0.62879275  0.12496330  0.80469775    -1.91200
Cd174      Cd  0.61539352  0.10654463  0.82838602     1.59900
O175        O  0.64394977  0.12102345  0.72544378    -0.80700
O176        O  0.61894112  0.10839695  0.88030874    -0.79300
C177        C  0.67592775  0.13018629  0.81824922     0.83200
C178        C  0.62232749  0.17261122  0.80964213     0.82900
O179        O  0.63298707  0.13311614  0.88391294    -0.78300
C180        C  0.58063881  0.11917615  0.80068586     0.83700
O181        O  0.66491303  0.13839119  0.83551645    -0.78400
C182        C  0.63198955  0.12889248  0.70996125     0.83800
C183        C  0.63438912  0.07747591  0.79083790     0.84100
O184        O  0.64475193  0.08800584  0.77716333    -0.80800
O185        O  0.13074148  0.87453540  0.13906323    -0.78300
C186        C  0.12066363  0.83226639  0.06821324     0.82700
O187        O  0.16585511  0.88806050  0.04827662    -0.79400
O188        O  0.11431431  0.86771236  0.98163570    -0.80900
O189        O  0.08345520  0.89295531  0.07621142    -0.80700
O190        O  0.11444083  0.89784651  0.13573577    -0.79300
Zn191      Zn  0.13567542  0.86610704  0.09261479     1.55700
O192        O  0.08340322  0.87099572  0.04028104    -0.80700
Cd193      Cd  0.10943252  0.89811647  0.08355089     1.59700
Cd194      Cd  0.14099288  0.89114885  0.03018972     1.59600
O195        O  0.11431411  0.92226336  0.06215264    -0.80700
O196        O  0.12370362  0.88008810  0.06023282    -1.91200
Cd197      Cd  0.10879436  0.86498347  0.03238742     1.59900
O198        O  0.13566851  0.91672401  0.02643376    -0.80700
O199        O  0.11206324  0.83947442  0.04490672    -0.79300
C200        C  0.17129073  0.87822321  0.07161339     0.83200
C201        C  0.12313041  0.88708509  0.15294850     0.82900
O202        O  0.12980656  0.84097374  0.08857893    -0.78300
C203        C  0.07547768  0.88199192  0.05818752     0.83700
O204        O  0.16109612  0.86877082  0.08835347    -0.78400
C205        C  0.12486310  0.92700886  0.03928186     0.83800
C206        C  0.12665576  0.87466357  0.96564566     0.84100
O207        O  0.13856214  0.88275706  0.98081450    -0.80800
O208        O  0.13445703  0.87238526  0.64035500    -0.78300
C209        C  0.12633913  0.83249162  0.56410520     0.82700
O210        O  0.17234715  0.88259780  0.54365482    -0.79400
O211        O  0.11743552  0.87143935  0.48168334    -0.80900
O212        O  0.09066874  0.89511279  0.57617439    -0.80700
O213        O  0.12039441  0.89699663  0.63630408    -0.79300
Zn214      Zn  0.14084928  0.86558427  0.59319972     1.55700
O215        O  0.08882078  0.87172780  0.54420758    -0.80700
Cd216      Cd  0.11671422  0.89844520  0.58414956     1.59700
Cd217      Cd  0.14771596  0.89045803  0.53011004     1.59600
O218        O  0.12388372  0.92242628  0.56614822    -0.80700
O219        O  0.12993856  0.88009405  0.56032251    -1.91200
Cd220      Cd  0.11400858  0.86603336  0.53242799     1.59900
O221        O  0.14672547  0.91680212  0.53416579    -0.80700
O222        O  0.11796246  0.84012194  0.54095627    -0.79300
C223        C  0.17713089  0.87412208  0.56954203     0.83200
C224        C  0.12708895  0.88513884  0.65406784     0.82900
O225        O  0.13497314  0.84080875  0.58588056    -0.78300
C226        C  0.08181031  0.88380269  0.56086168     0.83700
O227        O  0.16630956  0.86760514  0.58983686    -0.78400
C228        C  0.13624595  0.92734420  0.54740394     0.83800
C229        C  0.12912682  0.87904543  0.46492607     0.84100
O230        O  0.14209096  0.88574560  0.47946335    -0.80800
O231        O  0.36386298  0.86870268  0.10854947    -0.78300
C232        C  0.37189471  0.82878383  0.18424103     0.82700
O233        O  0.32564509  0.88279537  0.19750146    -0.79400
O234        O  0.37717430  0.86668453  0.26773650    -0.80900
O235        O  0.40851952  0.88986919  0.17264620    -0.80700
O236        O  0.37825017  0.89320879  0.11248758    -0.79300
Zn237      Zn  0.35727801  0.86184388  0.15536826     1.55700
O238        O  0.40864880  0.86853147  0.20992688    -0.80700
Cd239      Cd  0.38255395  0.89428494  0.16443189     1.59700
Cd240      Cd  0.35015368  0.88791783  0.21575398     1.59600
O241        O  0.37694195  0.91856452  0.18315714    -0.80700
O242        O  0.36823212  0.87653752  0.18793734    -1.91200
Cd243      Cd  0.38319663  0.86235676  0.21759011     1.59900
O244        O  0.35389084  0.91405203  0.21519355    -0.80700
O245        O  0.38027476  0.83637470  0.20745281    -0.79300
C246        C  0.32090358  0.87266965  0.17404246     0.83200
C247        C  0.37120624  0.88148492  0.09484440     0.82900
O248        O  0.36311191  0.83715078  0.16282823    -0.78300
C249        C  0.41654456  0.87935814  0.19151799     0.83700
O250        O  0.33169605  0.86389785  0.15735962    -0.78400
C251        C  0.36511116  0.92403408  0.20259394     0.83800
C252        C  0.36445280  0.87359059  0.28260579     0.84100
O253        O  0.35245643  0.88090830  0.26620296    -0.80800
O254        O  0.36778806  0.86653781  0.60944939    -0.78300
C255        C  0.37652216  0.82725627  0.68630601     0.82700
O256        O  0.33094051  0.88250249  0.69954439    -0.79400
O257        O  0.38187970  0.86498529  0.76789302    -0.80900
O258        O  0.41351530  0.88807508  0.67333524    -0.80700
O259        O  0.38370580  0.89017034  0.61159920    -0.79300
Zn260      Zn  0.36168654  0.86015085  0.65682776     1.55700
O261        O  0.41331575  0.86723990  0.71166536    -0.80700
Cd262      Cd  0.38766021  0.89249003  0.66368791     1.59700
Cd263      Cd  0.35568696  0.88739212  0.71672576     1.59600
O264        O  0.38231154  0.91723787  0.68105717    -0.80700
O265        O  0.37311572  0.87529185  0.68829034    -1.91200
Cd266      Cd  0.38792572  0.86119102  0.71803071     1.59900
O267        O  0.36015484  0.91341799  0.71572975    -0.80700
O268        O  0.38515683  0.83546992  0.70820139    -0.79300
C269        C  0.32585395  0.87255002  0.67604405     0.83200
C270        C  0.37577915  0.87865498  0.59482769     0.82900
O271        O  0.36714515  0.83502200  0.66490035    -0.78300
C272        C  0.42135137  0.87788442  0.69319627     0.83700
O273        O  0.33632619  0.86340081  0.65934931    -0.78400
C274        C  0.37122756  0.92310126  0.70179307     0.83800
C275        C  0.36981227  0.87267335  0.78322474     0.84100
O276        O  0.35827421  0.88092689  0.76734580    -0.80800
O277        O  0.37514149  0.13104692  0.39996374    -0.78300
C278        C  0.38147310  0.16875729  0.32027874     0.82700
O279        O  0.33532180  0.11460039  0.31228177    -0.79400
O280        O  0.38736715  0.12956171  0.24137519    -0.80900
O281        O  0.41692873  0.10595282  0.33539910    -0.80700
O282        O  0.38848804  0.10593076  0.39766067    -0.79300
Zn283      Zn  0.36722919  0.13631410  0.35295380     1.55700
O284        O  0.41827768  0.12747357  0.29864431    -0.80700
Cd285      Cd  0.39121197  0.10304537  0.34572168     1.59700
Cd286      Cd  0.35966619  0.10954122  0.29296301     1.59600
O287        O  0.38470585  0.07852948  0.32958623    -0.80700
O288        O  0.37767868  0.12086656  0.32106635    -1.91200
Cd289      Cd  0.39310361  0.13428313  0.29118220     1.59900
O290        O  0.36339657  0.08337149  0.29352597    -0.80700
O291        O  0.39054297  0.16028114  0.29943010    -0.79300
C292        C  0.33096300  0.12375556  0.33757115     0.83200
C293        C  0.38242701  0.11846922  0.41447427     0.82900
O294        O  0.37196592  0.16124442  0.34187137    -0.78300
C295        C  0.42548205  0.11600782  0.31651208     0.83700
O296        O  0.34192129  0.13246640  0.35399456    -0.78400
C297        C  0.37371805  0.07318738  0.30820790     0.83800
C298        C  0.37471181  0.12281327  0.22609913     0.84100
O299        O  0.36223762  0.11607337  0.24217939    -0.80800
O300        O  0.36684125  0.12848358  0.89926575    -0.78300
C301        C  0.38044462  0.16765219  0.82434437     0.82700
O302        O  0.33110169  0.11626143  0.80707811    -0.79400
O303        O  0.38461101  0.12948734  0.74134736    -0.80900
O304        O  0.41291653  0.10487275  0.83901126    -0.80700
O305        O  0.38157983  0.10409074  0.89773792    -0.79300
Zn306      Zn  0.36249904  0.13584362  0.85186723     1.55700
O307        O  0.41492379  0.12565371  0.80076244    -0.80700
Cd308      Cd  0.38660867  0.10199739  0.84598256     1.59700
Cd309      Cd  0.35569012  0.10962685  0.79170971     1.59600
O310        O  0.37984756  0.07778654  0.82748609    -0.80700
O311        O  0.37364461  0.12024810  0.82089645    -1.91200
Cd312      Cd  0.38999929  0.13324811  0.79192561     1.59900
O313        O  0.35789871  0.08336783  0.79324371    -0.80700
O314        O  0.38866906  0.15918803  0.80213820    -0.79300
C315        C  0.32614236  0.12658712  0.83000689     0.83200
C316        C  0.37371186  0.11578682  0.91406655     0.82900
O317        O  0.37036072  0.16027173  0.84506882    -0.78300
C318        C  0.42186061  0.11460848  0.82005246     0.83700
O319        O  0.33685097  0.13499906  0.84761754    -0.78400
C320        C  0.36818831  0.07285091  0.80705016     0.83800
C321        C  0.37191268  0.12297680  0.72575305     0.84100
O322        O  0.35944664  0.11605651  0.74147139    -0.80800
O323        O  0.13402445  0.13293282  0.34940723    -0.78300
C324        C  0.12704293  0.17149151  0.42833259     0.82700
O325        O  0.17217648  0.11784213  0.44150554    -0.79400
O326        O  0.11819265  0.13229041  0.50769075    -0.80900
O327        O  0.09026852  0.10932366  0.41196815    -0.80700
O328        O  0.12019036  0.10807640  0.35241685    -0.79300
Zn329      Zn  0.14112583  0.13864718  0.39683519     1.55700
O330        O  0.08862335  0.13157381  0.44691125    -0.80700
Cd331      Cd  0.11631960  0.10595556  0.40413754     1.59700
Cd332      Cd  0.14736169  0.11292580  0.45841086     1.59600
O333        O  0.12275186  0.08169716  0.42152744    -0.80700
O334        O  0.12977695  0.12384937  0.42873223    -1.91200
Cd335      Cd  0.11390009  0.13752611  0.45731260     1.59900
O336        O  0.14390028  0.08677929  0.45790607    -0.80700
O337        O  0.11768910  0.16346016  0.44944294    -0.79300
C338        C  0.17711773  0.12645423  0.41591797     0.83200
C339        C  0.12674263  0.12023516  0.33522105     0.82900
O340        O  0.13634419  0.16355385  0.40700128    -0.78300
C341        C  0.08150190  0.12001655  0.42905074     0.83700
O342        O  0.16651834  0.13476376  0.39787495    -0.78400
C343        C  0.13372112  0.07649852  0.44307131     0.83800
C344        C  0.13069623  0.12579226  0.52385901     0.84100
O345        O  0.14370993  0.11959336  0.50870216    -0.80800
O346        O  0.13452627  0.13269831  0.85084957    -0.78300
C347        C  0.12171806  0.17260504  0.92527586     0.82700
O348        O  0.16905326  0.11839675  0.94141750    -0.79400
O349        O  0.11738152  0.13491000  0.00939661    -0.80900
O350        O  0.08633187  0.11212709  0.91084255    -0.80700
O351        O  0.11818694  0.10933046  0.85164947    -0.79300
Zn352      Zn  0.13874551  0.14026698  0.89815059     1.55700
O353        O  0.08608366  0.13173144  0.95167630    -0.80700
Cd354      Cd  0.11256164  0.10780494  0.90332700     1.59700
Cd355      Cd  0.14418431  0.11363917  0.95704032     1.59600
O356        O  0.11774883  0.08327808  0.92214760    -0.80700
O357        O  0.12666972  0.12521337  0.92868930    -1.91200
Cd358      Cd  0.11133322  0.13867903  0.95889266     1.59900
O359        O  0.13944943  0.08787444  0.95756207    -0.80700
O360        O  0.11345821  0.16449328  0.94798387    -0.79300
C361        C  0.17466543  0.12927320  0.92017273     0.83200
C362        C  0.12709020  0.12041998  0.83565987     0.82900
O363        O  0.13139540  0.16486605  0.90432253    -0.78300
C364        C  0.07824013  0.12158117  0.93177950     0.83700
O365        O  0.16447688  0.13875228  0.90347186    -0.78400
C366        C  0.12856969  0.07791897  0.94389762     0.83800
C367        C  0.13028996  0.12807337  0.02368962     0.84100
O368        O  0.14205319  0.12077231  0.00678884    -0.80800
O369        O  0.87317148  0.36421655  0.35806972    -0.78300
C370        C  0.87741192  0.32928158  0.44280450     0.82700
O371        O  0.83278215  0.38437119  0.44211659    -0.79400
O372        O  0.88333196  0.37098179  0.51759419    -0.80900
O373        O  0.91583780  0.38868724  0.42020997    -0.80700
O374        O  0.88668056  0.38931581  0.35744418    -0.79300
Zn375      Zn  0.86462782  0.36086644  0.40531142     1.55700
O376        O  0.91504911  0.36931349  0.46143758    -0.80700
Cd377      Cd  0.89009205  0.39318665  0.40937128     1.59700
Cd378      Cd  0.85715485  0.38954079  0.46098555     1.59600
O379        O  0.88480575  0.41836351  0.42378210    -0.80700
O380        O  0.87528940  0.37689268  0.43565381    -1.91200
Cd381      Cd  0.88953319  0.36415676  0.46879003     1.59900
O382        O  0.86206491  0.41537546  0.45735810    -0.80700
O383        O  0.88605465  0.33802126  0.46393673    -0.79300
C384        C  0.82835723  0.37423138  0.41842872     0.83200
C385        C  0.88061567  0.37625816  0.34212655     0.82900
O386        O  0.86882799  0.33646285  0.41944735    -0.78300
C387        C  0.92337850  0.37905235  0.44155498     0.83700
O388        O  0.83927413  0.36487220  0.40333850    -0.78400
C389        C  0.87340754  0.42469012  0.44326284     0.83800
C390        C  0.87029327  0.37820352  0.53059549     0.84100
O391        O  0.85837129  0.38446710  0.51243118    -0.80800
O392        O  0.86865822  0.37069544  0.85525631    -0.78300
C393        C  0.87677006  0.33051130  0.92903975     0.82700
O394        O  0.82874301  0.38188095  0.94588176    -0.79400
O395        O  0.88146860  0.36704227  0.01438596    -0.80900
O396        O  0.91097966  0.39416491  0.92331455    -0.80700
O397        O  0.88227024  0.39553850  0.86068494    -0.79300
Zn398      Zn  0.86137564  0.36355721  0.90152813     1.55700
O399        O  0.91269504  0.37171780  0.95776354    -0.80700
Cd400      Cd  0.88511400  0.39668560  0.91299942     1.59700
Cd401      Cd  0.85314454  0.38778463  0.96435800     1.59600
O402        O  0.87765883  0.42040810  0.93166941    -0.80700
O403        O  0.87172047  0.37793328  0.93540631    -1.91200
Cd404      Cd  0.88747608  0.36394790  0.96390761     1.59900
O405        O  0.85536345  0.41406283  0.96457023    -0.80700
O406        O  0.88549255  0.33818452  0.95165902    -0.79300
C407        C  0.82461207  0.37355332  0.91937238     0.83200
C408        C  0.87590090  0.38372742  0.84230595     0.82900
O409        O  0.86719171  0.33873590  0.90871705    -0.78300
C410        C  0.91973376  0.38384701  0.94125675     0.70900
O411        O  0.83588373  0.36616999  0.90136646    -0.78400
C412        C  0.86570409  0.42488379  0.95177146     0.83800
C413        C  0.86895258  0.37374374  0.03024278     0.84100
O414        O  0.85655125  0.38090604  0.01473522    -0.80800
O415        O  0.87099392  0.63388674  0.14356440    -0.78300
C416        C  0.87762933  0.66982542  0.05989281     0.82700
O417        O  0.83135712  0.61579902  0.05712657    -0.79400
O418        O  0.88348001  0.62808461  0.98439852    -0.80900
O419        O  0.91323278  0.60799755  0.08254386    -0.80700
O420        O  0.88383079  0.60848057  0.14267290    -0.79300
Zn421      Zn  0.86341954  0.63823141  0.09591190     1.55700
O422        O  0.91482777  0.62830075  0.04319761    -0.80700
Cd423      Cd  0.88733419  0.60485129  0.09134350     1.59700
Cd424      Cd  0.85564860  0.61005296  0.03879938     1.59600
O425        O  0.88096380  0.58003953  0.07697620    -0.80700
O426        O  0.87385607  0.62208843  0.06525032    -1.91200
Cd427      Cd  0.88937748  0.63456588  0.03377847     1.59900
O428        O  0.85894419  0.58390041  0.04216528    -0.80700
O429        O  0.88632812  0.66086824  0.03913377    -0.79300
C430        C  0.82708326  0.62548879  0.08163133     0.83200
C431        C  0.87789701  0.62130320  0.15876275     0.82900
O432        O  0.86848166  0.66280803  0.08272567    -0.78300
C433        C  0.92197007  0.61761977  0.06308089     0.83700
O434        O  0.83807184  0.63453809  0.09723729    -0.78400
C435        C  0.86957205  0.57413088  0.05705526     0.83800
C436        C  0.87058828  0.62100983  0.97037009     0.84100
O437        O  0.85815246  0.61500477  0.98760131    -0.80800
O438        O  0.86792152  0.63075740  0.64321047    -0.78300
C439        C  0.87428428  0.66914961  0.56652848     0.82700
O440        O  0.82910661  0.61548638  0.55165545    -0.79400
O441        O  0.88192624  0.63155145  0.48532580    -0.80900
O442        O  0.91078408  0.60705883  0.58135532    -0.80700
O443        O  0.88079798  0.60536456  0.64126259    -0.79300
Zn444      Zn  0.85990535  0.63603553  0.59641549     1.55700
O445        O  0.91236938  0.62890403  0.54532781    -0.80700
Cd446      Cd  0.88474599  0.60330472  0.58909570     1.59700
Cd447      Cd  0.85380343  0.61049251  0.53517831     1.59600
O448        O  0.87871639  0.57903162  0.57037344    -0.80700
O449        O  0.87139494  0.62139131  0.56456955    -1.91200
Cd450      Cd  0.88715030  0.63541184  0.53601826     1.59900
O451        O  0.85726151  0.58439635  0.53480649    -0.80700
O452        O  0.88409201  0.66135435  0.54590515    -0.79300
C453        C  0.82391679  0.62410313  0.57697663     0.83200
C454        C  0.87502732  0.61813098  0.65788094     0.82900
O455        O  0.86446377  0.66096086  0.58652871    -0.78300
C456        C  0.91951147  0.61758869  0.56372857     0.83700
O457        O  0.83436748  0.63217157  0.59583497    -0.78400
C458        C  0.86758826  0.57402773  0.54891468     0.83800
C459        C  0.86908360  0.62523091  0.46985733     0.84100
O460        O  0.85676723  0.61808908  0.48559483    -0.80800
O461        O  0.63190546  0.63065880  0.10738537    -0.78300
C462        C  0.62401504  0.66872455  0.18666277     0.82700
O463        O  0.67092562  0.61519384  0.19596395    -0.79400
O464        O  0.61757251  0.62839504  0.26578058    -0.80900
O465        O  0.59018742  0.60586860  0.16707454    -0.80700
O466        O  0.62113636  0.60433005  0.10937240    -0.79300
Zn467      Zn  0.63881109  0.63646883  0.15468508     1.55700
O468        O  0.58759733  0.62705076  0.20443173    -0.80700
Cd469      Cd  0.61617849  0.60255880  0.16093198     1.59700
Cd470      Cd  0.64660057  0.60976541  0.21509177     1.59600
O471        O  0.62184071  0.57840658  0.17987012    -0.80700
O472        O  0.62866065  0.62079427  0.18640871    -1.91200
Cd473      Cd  0.61263320  0.63388215  0.21557523     1.59900
O474        O  0.64308098  0.58348483  0.21592506    -0.80700
O475        O  0.61546500  0.66012457  0.20826323    -0.79300
C476        C  0.67516489  0.62477865  0.17119200     0.83200
C477        C  0.62639558  0.61726529  0.09264168     0.82900
O478        O  0.63327569  0.66129529  0.16460048    -0.78300
C479        C  0.58099899  0.61583663  0.18493605     0.83700
O480        O  0.66410001  0.63343906  0.15503139    -0.78400
C481        C  0.63258557  0.57323481  0.20184471     0.83800
C482        C  0.63041331  0.62214855  0.28137481     0.84100
O483        O  0.64346543  0.61640628  0.26560402    -0.80800
O484        O  0.62837997  0.63313779  0.60719183    -0.78300
C485        C  0.62471817  0.67219219  0.68360006     0.82700
O486        O  0.66732948  0.61619208  0.69706985    -0.79400
O487        O  0.61742722  0.63598283  0.76592491    -0.80900
O488        O  0.58522698  0.61167083  0.67373902    -0.80700
O489        O  0.61372928  0.60871540  0.61048679    -0.79300
Zn490      Zn  0.63710212  0.63833938  0.65368228     1.55700
O491        O  0.58573598  0.63358460  0.70975609    -0.80700
Cd492      Cd  0.61078569  0.60676576  0.66301469     1.59700
Cd493      Cd  0.64271254  0.61208474  0.71526996     1.59600
O494        O  0.61570451  0.58209573  0.68121729    -0.80700
O495        O  0.62554979  0.62415151  0.68654209    -1.91200
Cd496      Cd  0.61128943  0.63925118  0.71583195     1.59900
O497        O  0.63760631  0.58611659  0.71632932    -0.80700
O498        O  0.61519598  0.66490741  0.70538977    -0.79300
C499        C  0.67272510  0.62509117  0.67221709     0.83200
C500        C  0.62017668  0.62095520  0.59324392     0.82900
O501        O  0.63358241  0.66351188  0.66274997    -0.78300
C502        C  0.57756801  0.62247727  0.69257300     0.83700
O503        O  0.66250521  0.63381020  0.65401908    -0.78400
C504        C  0.62649471  0.57638328  0.70265672     0.83800
C505        C  0.62957524  0.62839138  0.78118338     0.84100
O506        O  0.64079937  0.61969775  0.76532373    -0.80800
O507        O  0.62996662  0.36853855  0.40615823    -0.78300
C508        C  0.62231324  0.32944926  0.32738304     0.82700
O509        O  0.67002831  0.38090608  0.31630374    -0.79400
O510        O  0.61722998  0.36908336  0.24616962    -0.80900
O511        O  0.58819999  0.39263207  0.34093973    -0.80700
O512        O  0.61768741  0.39412087  0.40174911    -0.79300
Zn513      Zn  0.63722728  0.36189507  0.35928651     1.55700
O514        O  0.58649407  0.37059863  0.30537084    -0.80700
Cd515      Cd  0.61415611  0.39574857  0.34965596     1.59700
Cd516      Cd  0.64592255  0.38762698  0.29855561     1.59600
O517        O  0.62125974  0.41982472  0.33143320    -0.80700
O518        O  0.62731333  0.37716711  0.32635936    -1.91200
Cd519      Cd  0.61170589  0.36386676  0.29629294     1.59900
O520        O  0.64406482  0.41398152  0.29965999    -0.80700
O521        O  0.61437369  0.33767544  0.30441330    -0.79300
C522        C  0.67421204  0.37159984  0.34142173     0.83200
C523        C  0.62342154  0.38181008  0.41965225     0.82900
O524        O  0.63095491  0.33721773  0.34998488    -0.78300
C525        C  0.57943017  0.38218574  0.32326111     0.83700
O526        O  0.66294864  0.36385297  0.35897504    -0.78400
C527        C  0.63349023  0.42462457  0.31222649     0.83800
C528        C  0.63029720  0.37544280  0.23146567     0.84100
O529        O  0.64293424  0.38145463  0.24804536    -0.80800
O530        O  0.62670692  0.37132701  0.90673362    -0.78300
C531        C  0.61935512  0.33174099  0.83049532     0.82700
O532        O  0.66612271  0.38407387  0.81572666    -0.79400
O533        O  0.61327977  0.36917072  0.74855024    -0.80900
O534        O  0.58439446  0.39536492  0.84209588    -0.80700
O535        O  0.61366274  0.39654493  0.90305977    -0.79300
Zn536      Zn  0.63387461  0.36485628  0.86001384     1.55700
O537        O  0.58248750  0.37287324  0.80768077    -0.80700
Cd538      Cd  0.61032733  0.39834464  0.85086084     1.59700
Cd539      Cd  0.64162617  0.39024903  0.79812889     1.59600
O540        O  0.61730396  0.42247677  0.83269314    -0.80700
O541        O  0.62343044  0.37974563  0.82722317    -1.91200
Cd542      Cd  0.60760561  0.36565191  0.79902717     1.59900
O543        O  0.63920282  0.41660340  0.79853354    -0.80700
O544        O  0.61012686  0.33958902  0.80896286    -0.79300
C545        C  0.67043535  0.37515669  0.84136400     0.83200
C546        C  0.61979920  0.38429413  0.92059713     0.82900
O547        O  0.62869719  0.33992998  0.85131427    -0.78300
C548        C  0.57553621  0.38475205  0.82500281     0.83700
O549        O  0.65928114  0.36755679  0.85933332    -0.78400
C550        C  0.62896038  0.42726414  0.81212831     0.83800
C551        C  0.62575027  0.37591317  0.73255637     0.84100
O552        O  0.63803935  0.38342988  0.74778531    -0.80800
O553        O  0.13451608  0.66626108  0.07843770    -0.78300
C554        C  0.12494899  0.62469457  0.15184812     0.82700
O555        O  0.17192387  0.62048271  0.04804913    -0.79400
O556        O  0.12287871  0.58338545  0.06996373    -0.80900
O557        O  0.08906885  0.63235093  0.03589731    -0.80700
O558        O  0.11667998  0.66469111  0.03489241    -0.79300
Zn559      Zn  0.14043951  0.64163286  0.08944998     1.55700
O560        O  0.08953979  0.61120449  0.07355776    -0.80700
Cd561      Cd  0.11432575  0.63860370  0.02760339     1.59700
Cd562      Cd  0.14761370  0.61412462  0.03123603     1.59600
O563        O  0.12009125  0.63329296  0.97788124    -0.80700
O564        O  0.12957469  0.62568706  0.05867034    -1.91200
Cd565      Cd  0.11561849  0.60818161  0.08400831     1.59900
O566        O  0.14497634  0.61947829  0.98012390    -0.80700
O567        O  0.11864027  0.61193517  0.13597023    -0.79300
C568        C  0.17686414  0.63005104  0.07223065     0.83200
C569        C  0.12503082  0.67344584  0.05644261     0.82900
O570        O  0.13259372  0.63680383  0.13650114    -0.78300
C571        C  0.08134681  0.62145710  0.05436728     0.83700
O572        O  0.16622142  0.63871109  0.08963148    -0.78400
C573        C  0.13282084  0.62626440  0.96335140     0.83800
C574        C  0.13476662  0.57784271  0.05067455     0.84100
O575        O  0.14502580  0.58796245  0.03557446    -0.80800
O576        O  0.13020411  0.66621113  0.58094870    -0.78300
C577        C  0.12163616  0.62275094  0.65210501     0.82700
O578        O  0.16918093  0.62106106  0.55252209    -0.79400
O579        O  0.11943342  0.58356498  0.56692908    -0.80900
O580        O  0.08627487  0.63259916  0.53366987    -0.80700
O581        O  0.11413064  0.66499912  0.53475228    -0.79300
Zn582      Zn  0.13612577  0.64160071  0.59132214     1.55700
O583        O  0.08645760  0.61166867  0.57185016    -0.80700
Cd584      Cd  0.11173176  0.63892134  0.52708446     1.59700
Cd585      Cd  0.14531446  0.61468468  0.53277221     1.59600
O586        O  0.11840158  0.63347956  0.47791593    -0.80700
O587        O  0.12645375  0.62587566  0.55886194    -1.91200
Cd588      Cd  0.11229965  0.60810602  0.58256055     1.59900
O589        O  0.14325089  0.61963016  0.48122432    -0.80700
O590        O  0.11535086  0.61051241  0.63469841    -0.79300
C591        C  0.17297644  0.63060485  0.57757057     0.83200
C592        C  0.12166766  0.67357430  0.55771803     0.82900
O593        O  0.12864423  0.63563572  0.63811472    -0.78300
C594        C  0.07842669  0.62177904  0.55213839     0.83700
O595        O  0.16158576  0.63911838  0.59317116    -0.78400
C596        C  0.13116754  0.62623425  0.46391250     0.83800
C597        C  0.13204211  0.57823822  0.54928284     0.84100
O598        O  0.14291494  0.58850365  0.53643296    -0.80800
O599        O  0.13607920  0.33776376  0.42809171    -0.78300
C600        C  0.13149479  0.38079031  0.35448215     0.82700
O601        O  0.17231788  0.38530187  0.46143505    -0.79400
O602        O  0.12278067  0.42000569  0.43803208    -0.80900
O603        O  0.08918360  0.37156356  0.46613329    -0.80700
O604        O  0.11674874  0.33893214  0.46922421    -0.79300
Zn605      Zn  0.14233063  0.36239566  0.41865250     1.55700
O606        O  0.09155988  0.39141475  0.42600977    -0.80700
Cd607      Cd  0.11421213  0.36503778  0.47727516     1.59700
Cd608      Cd  0.14748962  0.39013649  0.47740992     1.59600
O609        O  0.11904162  0.36978986  0.52785216    -0.80700
O610        O  0.13049453  0.37808759  0.44821123    -1.91200
Cd611      Cd  0.11766042  0.39534426  0.42088826     1.59900
O612        O  0.14427633  0.38314751  0.52745576    -0.80700
O613        O  0.12386538  0.39291243  0.36995500    -0.79300
C614        C  0.17782746  0.37494412  0.43907443     0.83200
C615        C  0.12595002  0.33037154  0.44870563     0.82900
O616        O  0.13779302  0.36809663  0.37028045    -0.78300
C617        C  0.08245885  0.38187178  0.44501855     0.83700
O618        O  0.16769898  0.36528217  0.42267612    -0.78400
C619        C  0.13180451  0.37629907  0.54328962     0.83800
C620        C  0.13312290  0.42596604  0.46003417     0.84100
O621        O  0.14342765  0.41630151  0.47607515    -0.80800
O622        O  0.13108323  0.33833480  0.92657098    -0.78300
C623        C  0.12126696  0.38117375  0.85511759     0.82700
O624        O  0.16879172  0.38458587  0.95665698    -0.79400
O625        O  0.11851973  0.42052339  0.93974925    -0.80900
O626        O  0.08592992  0.37177105  0.97426542    -0.80700
O627        O  0.11366070  0.33916477  0.97092794    -0.79300
Zn628      Zn  0.13672266  0.36314101  0.91633488     1.55700
O629        O  0.08608355  0.39286928  0.93654225    -0.80700
Cd630      Cd  0.11133244  0.36515312  0.97949041     1.59700
Cd631      Cd  0.14452890  0.39023156  0.97531463     1.59600
O632        O  0.11780562  0.37019539  0.02873853    -0.80700
O633        O  0.12621186  0.37854606  0.94839523    -1.91200
Cd634      Cd  0.11178953  0.39594222  0.92438909     1.59900
O635        O  0.14251746  0.38438867  0.02637226    -0.80700
O636        O  0.11424003  0.39309374  0.87224970    -0.79300
C637        C  0.17324446  0.37491035  0.93224394     0.83200
C638        C  0.12195326  0.33077019  0.94873241     0.82900
O639        O  0.12925118  0.36895301  0.86935910    -0.78300
C640        C  0.07810295  0.38293087  0.95668172     0.83700
O641        O  0.16228525  0.36616941  0.91585973    -0.78400
C642        C  0.13041381  0.37747465  0.04317025     0.83800
C643        C  0.13010472  0.42626651  0.95945524     0.84100
O644        O  0.14099696  0.41641109  0.97338588    -0.80800
O645        O  0.36524232  0.33643718  0.34012088    -0.78300
C646        C  0.37649370  0.37915738  0.40915275     0.82700
O647        O  0.33066932  0.38293513  0.30281196    -0.79400
O648        O  0.38100632  0.41810358  0.32368364    -0.80900
O649        O  0.41281254  0.36751021  0.29351576    -0.80700
O650        O  0.38454751  0.33539910  0.29907610    -0.79300
Zn651      Zn  0.36103638  0.36156233  0.34779816     1.55700
O652        O  0.41262972  0.38932364  0.32976328    -0.80700
Cd653      Cd  0.38745204  0.36105197  0.28704314     1.59700
Cd654      Cd  0.35546121  0.38776844  0.28612618     1.59600
O655        O  0.38143457  0.36380058  0.23672026    -0.80700
O656        O  0.37264002  0.37595292  0.31550099    -1.91200
Cd657      Cd  0.38692616  0.39340429  0.33994229     1.59900
O658        O  0.35860037  0.38084605  0.23565698    -0.80700
O659        O  0.38365921  0.39108296  0.39220543    -0.79300
C660        C  0.32553786  0.37436862  0.32829983     0.83200
C661        C  0.37500092  0.32793589  0.32061677     0.82900
O662        O  0.36843198  0.36707897  0.39467319    -0.78300
C663        C  0.42063629  0.37870891  0.31109787     0.83700
O664        O  0.33590951  0.36595231  0.34660519    -0.78400
C665        C  0.36978465  0.37171349  0.22057393     0.83800
C666        C  0.36960006  0.42381925  0.30358060     0.84100
O667        O  0.35905112  0.41395664  0.28861002    -0.80800
O668        O  0.36215086  0.33454030  0.84048661    -0.78300
C669        C  0.37073201  0.37862621  0.90838295     0.82700
O670        O  0.32736535  0.38072299  0.79877787    -0.79400
O671        O  0.37727511  0.41623601  0.82134992    -0.80900
O672        O  0.41005004  0.36625612  0.79612939    -0.80700
O673        O  0.38232336  0.33355071  0.80105923    -0.79300
Zn674      Zn  0.35699103  0.35968343  0.84669926     1.55700
O675        O  0.40870047  0.38808647  0.83218724    -0.80700
Cd676      Cd  0.38494653  0.35913717  0.78837667     1.59700
Cd677      Cd  0.35254795  0.38550969  0.78381525     1.59600
O678        O  0.37999801  0.36147803  0.73756111    -0.80700
O679        O  0.36915980  0.37398490  0.81491296    -1.91200
Cd680      Cd  0.38270695  0.39185259  0.83959775     1.59900
O681        O  0.35673767  0.37787756  0.73425823    -0.80700
O682        O  0.37813094  0.39031091  0.89123176    -0.79300
C683        C  0.32166547  0.37163489  0.82311225     0.83200
C684        C  0.37248770  0.32607536  0.82206900     0.82900
O685        O  0.36306532  0.36618319  0.89416526    -0.78300
C686        C  0.41728227  0.37773556  0.81397249     0.83700
O687        O  0.33170527  0.36319784  0.84214578    -0.78400
C688        C  0.36850453  0.36902621  0.72034146     0.83800
C689        C  0.36689295  0.42175062  0.79900441     0.84100
O690        O  0.35664026  0.41172948  0.78361834    -0.80800
O691        O  0.36765880  0.66195385  0.16489416    -0.78300
C692        C  0.37540669  0.61816271  0.09359284     0.82700
O693        O  0.33173394  0.61513271  0.20119623    -0.79400
O694        O  0.38263286  0.57984476  0.18099475    -0.80900
O695        O  0.41474892  0.62997832  0.20479842    -0.80700
O696        O  0.38663654  0.66155426  0.20661509    -0.79300
Zn697      Zn  0.36229416  0.63687112  0.15613919     1.55700
O698        O  0.41387916  0.60854959  0.16784285    -0.80700
Cd699      Cd  0.38967359  0.63570268  0.21544395     1.59700
Cd700      Cd  0.35681082  0.61014480  0.21714061     1.59600
O701        O  0.38552840  0.63089131  0.26588649    -0.80700
O702        O  0.37395500  0.62178186  0.18719600    -1.91200
Cd703      Cd  0.38768207  0.60423659  0.16187068     1.59900
O704        O  0.36093992  0.61642642  0.26754315    -0.80700
O705        O  0.38236027  0.60602261  0.11027427    -0.79300
C706        C  0.32647140  0.62453181  0.17693523     0.83200
C707        C  0.37751553  0.66973794  0.18545873     0.82900
O708        O  0.36852450  0.63089507  0.10838938    -0.78300
C709        C  0.42226308  0.61920989  0.18578931     0.83700
O710        O  0.33687348  0.63326299  0.15912105    -0.78400
C711        C  0.37358382  0.62355264  0.28234149     0.83800
C712        C  0.37189653  0.57422652  0.20268461     0.84100
O713        O  0.36100970  0.58404633  0.21676581    -0.80800
O714        O  0.36636193  0.65950208  0.65756731    -0.78300
C715        C  0.37553928  0.61360597  0.59366518     0.82700
O716        O  0.32832740  0.61591492  0.69673439    -0.79400
O717        O  0.37786061  0.57768880  0.68391025    -0.80900
O718        O  0.41151942  0.62865570  0.70668658    -0.80700
O719        O  0.38348675  0.66087818  0.70211198    -0.79300
Zn720      Zn  0.36112582  0.63440462  0.65194487     1.55700
O721        O  0.41036473  0.60582297  0.67298874    -0.80700
Cd722      Cd  0.38615719  0.63518498  0.71456925     1.59700
Cd723      Cd  0.35264531  0.60993981  0.71560506     1.59600
O724        O  0.38004165  0.63247816  0.76507237    -0.80700
O725        O  0.37101086  0.62030870  0.68662692    -1.91200
Cd726      Cd  0.38459227  0.60158611  0.66472623     1.59900
O727        O  0.35586437  0.61723926  0.76596502    -0.80700
O728        O  0.38130527  0.60171951  0.61252946    -0.79300
C729        C  0.32446456  0.62431973  0.67015359     0.83200
C730        C  0.37521649  0.66816673  0.67842375     0.82900
O731        O  0.36870694  0.62696602  0.60608629    -0.78300
C732        C  0.41885903  0.61696727  0.68949798     0.83700
O733        O  0.33589263  0.63155093  0.65228558    -0.78400
C734        C  0.36773014  0.62547059  0.78112002     0.83800
C735        C  0.36560377  0.57287246  0.70301081     0.84100
O736        O  0.35497569  0.58352132  0.71546849    -0.80800
C737        C  0.36760442  0.62669588  0.81848178    -0.03000
C738        C  0.37729161  0.63939945  0.83476997    -0.05600
C739        C  0.37817229  0.64002760  0.86996412    -0.20700
C740        C  0.36973450  0.62776447  0.88972713     0.25000
C741        C  0.35973784  0.61522277  0.87358417    -0.18300
C742        C  0.35860361  0.61476637  0.83827702    -0.08200
C743        C  0.37124643  0.62882945  0.92704529    -0.18500
C744        C  0.37076348  0.61505604  0.94749094    -0.23300
C745        C  0.37251764  0.61630828  0.98483022     0.27100
C746        C  0.37890452  0.60228606  0.00305392    -0.20100
C747        C  0.38021272  0.60293035  0.03832346    -0.09700
C748        C  0.37491681  0.61754619  0.05613113    -0.10300
C749        C  0.36851372  0.63156052  0.03780506    -0.03200
C750        C  0.36730716  0.63095222  0.00265426    -0.18300
H751        H  0.38426861  0.64885191  0.82027670     0.10800
H752        H  0.38576607  0.64994726  0.88180027     0.10800
H753        H  0.35267741  0.60587094  0.88815982     0.10500
H754        H  0.35101151  0.60484838  0.82646404     0.11600
H755        H  0.37394446  0.64132176  0.93771418     0.11700
H756        H  0.36982501  0.60238088  0.93648563     0.13600
H757        H  0.38289111  0.59081877  0.98996990     0.10100
H758        H  0.38512319  0.59188815  0.05164685     0.12200
H759        H  0.36421756  0.64299439  0.05064036     0.08800
H760        H  0.36185079  0.64182441  0.98967875     0.11600
C761        C  0.37645767  0.61205736  0.55644307    -0.03000
C762        C  0.38079052  0.59654231  0.54066219    -0.05600
C763        C  0.38080881  0.59525327  0.50535408    -0.20700
C764        C  0.37681080  0.60950530  0.48529409     0.25000
C765        C  0.37249281  0.62497704  0.50116846    -0.18300
C766        C  0.37235581  0.62623378  0.53622365    -0.08200
C767        C  0.37641999  0.60792667  0.44795606    -0.18500
C768        C  0.38006815  0.62126393  0.42768623    -0.23300
C769        C  0.37857644  0.62089378  0.39041014     0.27100
C770        C  0.38835997  0.63250340  0.37155969    -0.20100
C771        C  0.38664671  0.63341111  0.33656030    -0.09700
C772        C  0.37484654  0.62291870  0.31961216    -0.10300
C773        C  0.36494534  0.61132315  0.33848308    -0.03200
C774        C  0.36682063  0.61027156  0.37357071    -0.18300
H775        H  0.38388759  0.58535944  0.55556067     0.10800
H776        H  0.38399571  0.58314402  0.49367978     0.10800
H777        H  0.36877338  0.63606937  0.48660046     0.10500
H778        H  0.36885634  0.63835487  0.54748226     0.11600
H779        H  0.37342036  0.59553361  0.43710084     0.11700
H780        H  0.38476256  0.63305612  0.43884194     0.13600
H781        H  0.39738219  0.64092639  0.38399224     0.10100
H782        H  0.39450869  0.64244350  0.32279166     0.12200
H783        H  0.35583701  0.60298002  0.32611433     0.08800
H784        H  0.35877034  0.60147067  0.38744906     0.11600
C785        C  0.36713641  0.44016627  0.78960306    -0.03000
C786        C  0.37976348  0.45121932  0.80241693    -0.05600
C787        C  0.38084760  0.46817831  0.79124588    -0.20700
C788        C  0.36922101  0.47457103  0.76740379     0.25000
C789        C  0.35641735  0.46361561  0.75494182    -0.18300
C790        C  0.35540328  0.44663151  0.76591181    -0.08200
C791        C  0.37132211  0.49240555  0.75489795    -0.18500
C792        C  0.35827465  0.50188709  0.74300456    -0.23300
C793        C  0.36040320  0.51987640  0.73164493     0.27100
C794        C  0.34696887  0.53143921  0.73680258    -0.20100
C795        C  0.34863502  0.54856709  0.72724758    -0.09700
C796        C  0.36367679  0.55447418  0.71159379    -0.10300
C797        C  0.37692206  0.54273451  0.70527929    -0.03200
C798        C  0.37534299  0.52561734  0.71535038    -0.18300
H799        H  0.38908152  0.44666676  0.82050192     0.10800
H800        H  0.39088267  0.47631733  0.80112378     0.10800
H801        H  0.34749541  0.46792706  0.73591378     0.10500
H802        H  0.34560339  0.43846390  0.75526929     0.11600
H803        H  0.38390431  0.49820189  0.75717075     0.11700
H804        H  0.34535532  0.49679615  0.74387608     0.13600
H805        H  0.33526034  0.52728033  0.74894895     0.10100
H806        H  0.33812406  0.55720825  0.73225273     0.12200
H807        H  0.38863008  0.54683527  0.69308450     0.08800
H808        H  0.38574461  0.51688214  0.71015669     0.11600
C809        C  0.37704998  0.37921042  0.44654507    -0.03000
C810        C  0.38211282  0.39380692  0.46464602    -0.05600
C811        C  0.38128568  0.39398285  0.49997016    -0.20700
C812        C  0.37568372  0.37950694  0.51784372     0.25000
C813        C  0.37088704  0.36482342  0.49972261    -0.18300
C814        C  0.37158336  0.36468679  0.46455101    -0.08200
C815        C  0.37401147  0.38036889  0.55512997    -0.18500
C816        C  0.37506191  0.36647422  0.57509091    -0.23300
C817        C  0.37290791  0.36723058  0.61221462     0.27100
C818        C  0.38175187  0.35547569  0.63238419    -0.20100
C819        C  0.38011109  0.35588562  0.66747188    -0.09700
C820        C  0.36929035  0.36786544  0.68309293    -0.10300
C821        C  0.35998511  0.37927999  0.66279663    -0.03200
C822        C  0.36181326  0.37901123  0.62768761    -0.18300
H823        H  0.38628882  0.40521505  0.45151751     0.10800
H824        H  0.38492691  0.40549185  0.51338247     0.10800
H825        H  0.36604105  0.35358975  0.51249400     0.10500
H826        H  0.36754290  0.35322684  0.45142692     0.11600
H827        H  0.37238410  0.39290107  0.56650272     0.11700
H828        H  0.37846534  0.35420241  0.56418330     0.13600
H829        H  0.39020339  0.34614610  0.62097779     0.10100
H830        H  0.38740400  0.34686743  0.68237744     0.12200
H831        H  0.35153316  0.38864273  0.67406815     0.08800
H832        H  0.35441681  0.38790349  0.61272151     0.11600
C833        C  0.37093142  0.37935313  0.94571905    -0.03000
C834        C  0.37563771  0.39437949  0.96281093    -0.05600
C835        C  0.37536628  0.39498092  0.99811634    -0.20700
C836        C  0.37069287  0.38051620  0.01699941     0.25000
C837        C  0.36601396  0.36547966  0.99987382    -0.18300
C838        C  0.36612019  0.36492586  0.96467055    -0.08200
C839        C  0.36999376  0.38171231  0.05436935    -0.18500
C840        C  0.37211426  0.36809100  0.07472109    -0.23300
C841        C  0.37108243  0.36919390  0.11202080     0.27100
C842        C  0.38079892  0.35784784  0.13151477    -0.20100
C843        C  0.38020636  0.35855307  0.16671533    -0.09700
C844        C  0.36961979  0.37044757  0.18323817    -0.10300
C845        C  0.35946028  0.38146041  0.16367647    -0.03200
C846        C  0.36021583  0.38087992  0.12840249    -0.18300
H847        H  0.37929353  0.40573558  0.94891490     0.10800
H848        H  0.37885597  0.40676476  0.01073581     0.10800
H849        H  0.36183873  0.35423569  0.01350219     0.10500
H850        H  0.36236801  0.35316055  0.95228726     0.11600
H851        H  0.36829410  0.39430798  0.06541919     0.11700
H852        H  0.37559611  0.35582016  0.06390022     0.13600
H853        H  0.38909617  0.34858918  0.11945647     0.10100
H854        H  0.38812142  0.34980126  0.18099089     0.12200
H855        H  0.35111219  0.39070153  0.17560951     0.08800
H856        H  0.35215157  0.38944372  0.11404272     0.11600
C857        C  0.36862170  0.44237551  0.29654835    -0.03000
C858        C  0.35278632  0.44993229  0.28916217    -0.05600
C859        C  0.35183068  0.46714093  0.27987325    -0.20700
C860        C  0.36669544  0.47710889  0.27690488     0.25000
C861        C  0.38256495  0.46966049  0.28509582    -0.18300
C862        C  0.38347986  0.45246702  0.29503769    -0.08200
C863        C  0.36494139  0.49520168  0.26566677    -0.18500
C864        C  0.37750647  0.50413856  0.25032967    -0.23300
C865        C  0.37531202  0.52197332  0.23763396     0.27100
C866        C  0.38650639  0.52812433  0.21266036    -0.20100
C867        C  0.38510448  0.54488954  0.20050534    -0.09700
C868        C  0.37251855  0.55597957  0.21323911    -0.10300
C869        C  0.36130292  0.54981795  0.23825693    -0.03200
C870        C  0.36270934  0.53307900  0.25040315    -0.18300
H871        H  0.34112116  0.44247680  0.29039204     0.10800
H872        H  0.33942704  0.47258711  0.27418700     0.10800
H873        H  0.39425335  0.47704548  0.28406553     0.10500
H874        H  0.39585426  0.44692376  0.30058317     0.11600
H875        H  0.35235350  0.50087987  0.26810862     0.11700
H876        H  0.38961553  0.49790284  0.24512062     0.13600
H877        H  0.39641919  0.51993163  0.20254896     0.10100
H878        H  0.39408741  0.54924277  0.18153960     0.12200
H879        H  0.35162366  0.55805519  0.24907839     0.08800
H880        H  0.35416667  0.52912608  0.27040447     0.11600
C881        C  0.30305810  0.37114579  0.83057405    -0.03000
C882        C  0.29116117  0.37980070  0.81020675    -0.05600
C883        C  0.27379476  0.38010333  0.81903482    -0.20700
C884        C  0.26804166  0.37201702  0.84860829     0.25000
C885        C  0.27984623  0.36289852  0.86832208    -0.18300
C886        C  0.29711096  0.36247547  0.85941448    -0.08200
C887        C  0.24966046  0.37294992  0.85803727    -0.18500
C888        C  0.24426959  0.37249381  0.89037938    -0.23300
C889        C  0.22596631  0.37321372  0.90038765     0.27100
C890        C  0.22160562  0.37968962  0.93231912    -0.20100
C891        C  0.20451079  0.38028604  0.94280896    -0.09700
C892        C  0.19144708  0.37405524  0.92180696    -0.10300
C893        C  0.19586850  0.36728823  0.89007205    -0.03200
C894        C  0.21291246  0.36690673  0.87942822    -0.18300
H895        H  0.29528850  0.38651019  0.78772184     0.10800
H896        H  0.26488962  0.38699499  0.80314296     0.10800
H897        H  0.27578195  0.35597252  0.89057321     0.10500
H898        H  0.30585316  0.35552359  0.87554066     0.11600
H899        H  0.24045666  0.37491489  0.83791005     0.11700
H900        H  0.25365181  0.37232672  0.91056885     0.13600
H901        H  0.23145596  0.38445048  0.94908644     0.10100
H902        H  0.20153568  0.38552373  0.96741776     0.12200
H903        H  0.18611561  0.36239132  0.87324729     0.08800
H904        H  0.21582845  0.36137173  0.85507319     0.11600
C905        C  0.12060028  0.38149081  0.81773712    -0.03000
C906        C  0.10952289  0.39255652  0.80036837    -0.05600
C907        C  0.10918534  0.39267735  0.76500652    -0.20700
C908        C  0.12010958  0.38199001  0.74637803     0.25000
C909        C  0.13108611  0.37084865  0.76380254    -0.18300
C910        C  0.13131756  0.37061314  0.79899752    -0.08200
C911        C  0.11932832  0.38216414  0.70891487    -0.18500
C912        C  0.13279824  0.37800128  0.68934221    -0.23300
C913        C  0.13211666  0.37759530  0.65192897     0.27100
C914        C  0.14724081  0.38028521  0.63360435    -0.20100
C915        C  0.14717281  0.37978651  0.59834985    -0.09700
C916        C  0.13200725  0.37624272  0.58066369    -0.10300
C917        C  0.11693145  0.37312956  0.59904436    -0.03200
C918        C  0.11696042  0.37384867  0.63431367    -0.18300
H919        H  0.10104823  0.40101982  0.81407862     0.10800
H920        H  0.10047032  0.40123519  0.75215089     0.10800
H921        H  0.13928662  0.36202099  0.75039200     0.10500
H922        H  0.13998334  0.36189056  0.81153704     0.11600
H923        H  0.10752088  0.38643119  0.69724202     0.11700
H924        H  0.14509381  0.37546470  0.70102112     0.13600
H925        H  0.15912194  0.38297084  0.64661900     0.10100
H926        H  0.15902112  0.38213623  0.58494455     0.12200
H927        H  0.10504636  0.37032579  0.58615956     0.08800
H928        H  0.10517973  0.37118651  0.64767165     0.11600
C929        C  0.13041607  0.37851176  0.08044623    -0.03000
C930        C  0.11516486  0.37551783  0.09830648    -0.05600
C931        C  0.11452989  0.37760550  0.13320387    -0.20700
C932        C  0.12916103  0.38241768  0.15121972     0.25000
C933        C  0.14452361  0.38531066  0.13354520    -0.18300
C934        C  0.14511116  0.38344443  0.09840387    -0.08200
C935        C  0.12766266  0.38464884  0.18823342    -0.18500
C936        C  0.14071293  0.38211876  0.20967486    -0.23300
C937        C  0.13834356  0.38247272  0.24677441     0.27100
C938        C  0.14814440  0.37143120  0.26671532    -0.20100
C939        C  0.14573045  0.37080675  0.30158008    -0.09700
C940        C  0.13367135  0.38148546  0.31739466    -0.10300
C941        C  0.12418765  0.39293504  0.29754031    -0.03200
C942        C  0.12645452  0.39339054  0.26250712    -0.18300
H943        H  0.10354687  0.37192572  0.08522438     0.10800
H944        H  0.10253583  0.37540004  0.14622177     0.10800
H945        H  0.15595594  0.38941827  0.14662413     0.10500
H946        H  0.15699795  0.38599541  0.08528174     0.11600
H947        H  0.11496400  0.38701475  0.19834992     0.11700
H948        H  0.15303727  0.37800378  0.19998594     0.13600
H949        H  0.15746347  0.36300523  0.25519194     0.10100
H950        H  0.15343239  0.36200641  0.31619813     0.12200
H951        H  0.11494589  0.40143980  0.30903760     0.08800
H952        H  0.11901575  0.40238426  0.24784967     0.11600
C953        C  0.19626934  0.37458318  0.43054221    -0.03000
C954        C  0.20819313  0.38422471  0.44905121    -0.05600
C955        C  0.22537159  0.38475001  0.43917006    -0.20700
C956        C  0.23087764  0.37592979  0.41030214     0.25000
C957        C  0.21905370  0.36597575  0.39223740    -0.18300
C958        C  0.20195898  0.36529583  0.40227649    -0.08200
C959        C  0.24912332  0.37675207  0.40031988    -0.18500
C960        C  0.25434119  0.37545293  0.36800854    -0.23300
C961        C  0.27264118  0.37535644  0.35823154     0.27100
C962        C  0.27749980  0.38140428  0.32625669    -0.20100
C963        C  0.29468171  0.38112665  0.31626854    -0.09700
C964        C  0.30724273  0.37444846  0.33789327    -0.10300
C965        C  0.30226999  0.36812539  0.36965150    -0.03200
C966        C  0.28519428  0.36858309  0.37972324    -0.18300
H967        H  0.20422765  0.39149558  0.47095544     0.10800
H968        H  0.23432686  0.39231481  0.45373810     0.10800
H969        H  0.22300065  0.35855480  0.37053273     0.10500
H970        H  0.19314037  0.35769104  0.38748001     0.11600
H971        H  0.25844571  0.37910690  0.42008503     0.11700
H972        H  0.24492194  0.37493383  0.34790566     0.13600
H973        H  0.26799746  0.38649848  0.30912196     0.10100
H974        H  0.29811316  0.38605922  0.29163808     0.12200
H975        H  0.31161096  0.36288833  0.38695599     0.08800
H976        H  0.28183910  0.36331300  0.40410055     0.11600
C977        C  0.19078206  0.63116763  0.59039472    -0.03000
C978        C  0.19431174  0.63884125  0.62177593    -0.05600
C979        C  0.21064652  0.63791279  0.63589577    -0.20700
C980        C  0.22391456  0.62955047  0.61881424     0.25000
C981        C  0.22049683  0.62205965  0.58718659    -0.18300
C982        C  0.20409661  0.62286322  0.57315546    -0.08200
C983        C  0.24097407  0.62841262  0.63515411    -0.18500
C984        C  0.25554957  0.62728053  0.61732178    -0.23300
C985        C  0.27279674  0.62690887  0.63283389     0.27100
C986        C  0.28651782  0.63319170  0.61384481    -0.20100
C987        C  0.30310305  0.63263953  0.62651021    -0.09700
C988        C  0.30649831  0.62551672  0.65842243    -0.10300
C989        C  0.29276318  0.61914033  0.67760084    -0.03200
C990        C  0.27600873  0.61988712  0.66496596    -0.18300
H991        H  0.18432302  0.64518852  0.63596945     0.10800
H992        H  0.21291289  0.64370212  0.66032530     0.10800
H993        H  0.23029082  0.61509930  0.57366428     0.10500
H994        H  0.20176302  0.61666271  0.54916320     0.11600
H995        H  0.24157681  0.62960192  0.66243074     0.11700
H996        H  0.25498172  0.62782140  0.58996933     0.13600
H997        H  0.28440059  0.63856491  0.58899762     0.10100
H998        H  0.31333602  0.63757018  0.61084312     0.12200
H999        H  0.29497825  0.61345224  0.70212033     0.08800
H1000       H  0.26571707  0.61456851  0.67993597     0.11600
C1001       C  0.13412047  0.55969524  0.54246627    -0.03000
C1002       C  0.14977162  0.55345801  0.53004158    -0.05600
C1003       C  0.15160227  0.53626465  0.52122969    -0.20700
C1004       C  0.13778202  0.52491623  0.52399681     0.25000
C1005       C  0.12219850  0.53099752  0.53720724    -0.18300
C1006       C  0.12041703  0.54821747  0.54645256    -0.08200
C1007       C  0.14026768  0.50684123  0.51333980    -0.18500
C1008       C  0.12751539  0.49689842  0.50154730    -0.23300
C1009       C  0.13002493  0.47901215  0.48953432     0.27100
C1010       C  0.11787192  0.47187902  0.46757062    -0.20100
C1011       C  0.11923984  0.45487347  0.45691030    -0.09700
C1012       C  0.13269843  0.44448929  0.46836135    -0.10300
C1013       C  0.14503055  0.45169084  0.48997098    -0.03200
C1014       C  0.14371972  0.46873528  0.50046963    -0.18300
H1015       H  0.16063184  0.56191724  0.52686227     0.10800
H1016       H  0.16379054  0.53188696  0.51150801     0.10800
H1017       H  0.11141325  0.52249223  0.54063658     0.10500
H1018       H  0.10821262  0.55261979  0.55601603     0.11600
H1019       H  0.15328705  0.50206275  0.51300036     0.11700
H1020       H  0.11480616  0.50231212  0.49894607     0.13600
H1021       H  0.10716768  0.47945435  0.45885734     0.10100
H1022       H  0.10945005  0.44972760  0.44045814     0.12200
H1023       H  0.15551592  0.44404058  0.49942593     0.08800
H1024       H  0.15314475  0.47356067  0.51801747     0.11600
C1025       C  0.12130105  0.62201799  0.68949352    -0.03000
C1026       C  0.11233163  0.60907859  0.70664362    -0.05600
C1027       C  0.11233029  0.60849852  0.74196865    -0.20700
C1028       C  0.12157806  0.62059167  0.76074433     0.25000
C1029       C  0.13051545  0.63354552  0.74364947    -0.18300
C1030       C  0.13034506  0.63426840  0.70846052    -0.08200
C1031       C  0.12108732  0.61995778  0.79811107    -0.18500
C1032       C  0.13445185  0.62469532  0.81738288    -0.23300
C1033       C  0.13374937  0.62473257  0.85475463     0.27100
C1034       C  0.14862985  0.62125875  0.87328303    -0.20100
C1035       C  0.14836308  0.62159456  0.90859377    -0.09700
C1036       C  0.13327628  0.62582981  0.92599178    -0.10300
C1037       C  0.11845247  0.62955857  0.90732445    -0.03200
C1038       C  0.11866294  0.62895779  0.87210738    -0.18300
H1039       H  0.10524873  0.59946165  0.69279753     0.10800
H1040       H  0.10522857  0.59849175  0.75467778     0.10800
H1041       H  0.13738219  0.64333555  0.75744172     0.10500
H1042       H  0.13738399  0.64443469  0.69612330     0.11600
H1043       H  0.10963935  0.61486786  0.80998993     0.11700
H1044       H  0.14651130  0.62806428  0.80547169     0.13600
H1045       H  0.16044099  0.61813954  0.86039138     0.10100
H1046       H  0.16000308  0.61871527  0.92224567     0.12200
H1047       H  0.10662358  0.63288022  0.91993726     0.08800
H1048       H  0.10709887  0.63215308  0.85850097     0.11600
C1049       C  0.12363271  0.62575366  0.18905245    -0.03000
C1050       C  0.12549099  0.64168955  0.20507449    -0.05600
C1051       C  0.12510373  0.64294228  0.24016225    -0.20700
C1052       C  0.12324676  0.62827931  0.26012128     0.25000
C1053       C  0.12104326  0.61231894  0.24426756    -0.18300
C1054       C  0.12111825  0.61109098  0.20896165    -0.08200
C1055       C  0.12327659  0.63026802  0.29730558    -0.18500
C1056       C  0.12959749  0.61840805  0.31850244    -0.23300
C1057       C  0.13022742  0.62102115  0.35562519     0.27100
C1058       C  0.14300288  0.61290304  0.37464345    -0.20100
C1059       C  0.14370889  0.61496661  0.40974100    -0.09700
C1060       C  0.13147315  0.62502854  0.42654440    -0.10300
C1061       C  0.11868090  0.63310885  0.40740088    -0.03200
C1062       C  0.11803093  0.63110916  0.37243093    -0.18300
H1063       H  0.12726558  0.65325835  0.19043918     0.10800
H1064       H  0.12661113  0.65539233  0.25179566     0.10800
H1065       H  0.11911912  0.60084060  0.25906814     0.10500
H1066       H  0.11957361  0.59866600  0.19728356     0.11600
H1067       H  0.11915973  0.64252850  0.30727289     0.11700
H1068       H  0.13537776  0.60689246  0.30827142     0.13600
H1069       H  0.15247106  0.60496365  0.36229559     0.10100
H1070       H  0.15362190  0.60842222  0.42374653     0.12200
H1071       H  0.10893098  0.64079521  0.41949592     0.08800
H1072       H  0.10768445  0.63713895  0.35879913     0.11600
C1073       C  0.19531559  0.63060656  0.08105465    -0.03000
C1074       C  0.20763620  0.62371228  0.05908946    -0.05600
C1075       C  0.22488632  0.62317020  0.06838881    -0.20700
C1076       C  0.23019564  0.62917890  0.10008013     0.25000
C1077       C  0.21795927  0.63643656  0.12181484    -0.18300
C1078       C  0.20072150  0.63719784  0.11232938    -0.08200
C1079       C  0.24864679  0.62823795  0.10904828    -0.18500
C1080       C  0.25442188  0.62685575  0.14102328    -0.23300
C1081       C  0.27295285  0.62611011  0.14968409     0.27100
C1082       C  0.27815864  0.61800872  0.17963681    -0.20100
C1083       C  0.29549751  0.61741261  0.18869793    -0.09700
C1084       C  0.30797435  0.62518363  0.16821827    -0.10300
C1085       C  0.30268123  0.63345547  0.13845192    -0.03200
C1086       C  0.28543622  0.63392486  0.12930719    -0.18300
H1087       H  0.20393424  0.61861783  0.03474913     0.10800
H1088       H  0.23408745  0.61774109  0.05098370     0.10800
H1089       H  0.22167547  0.64168449  0.14599425     0.10500
H1090       H  0.19157330  0.64264450  0.12980779     0.11600
H1091       H  0.25771136  0.62778691  0.08830463     0.11700
H1092       H  0.24529726  0.62554906  0.16153373     0.13600
H1093       H  0.26878682  0.61201365  0.19595066     0.10100
H1094       H  0.29911443  0.61093937  0.21176709     0.12200
H1095       H  0.31189921  0.63959395  0.12201694     0.08800
H1096       H  0.28193303  0.64074205  0.10658730     0.11600
C1097       C  0.13660200  0.55920794  0.04440315    -0.03000
C1098       C  0.15145200  0.55289657  0.02868550    -0.05600
C1099       C  0.15277277  0.53566235  0.01982225    -0.20700
C1100       C  0.13919352  0.52435492  0.02583740     0.25000
C1101       C  0.12452752  0.53045676  0.04258526    -0.18300
C1102       C  0.12328333  0.54771661  0.05189861    -0.08200
C1103       C  0.14089282  0.50632363  0.01445705    -0.18500
C1104       C  0.12749287  0.49678813  0.00427023    -0.23300
C1105       C  0.12918008  0.47902959  0.99108590     0.27100
C1106       C  0.11621535  0.47243602  0.97029610    -0.20100
C1107       C  0.11687779  0.45553800  0.95871147    -0.09700
C1108       C  0.13044660  0.44475390  0.96803046    -0.10300
C1109       C  0.14358926  0.45144776  0.98837688    -0.03200
C1110       C  0.14296380  0.46835683  0.99982726    -0.18300
H1111       H  0.16202072  0.56134556  0.02277046     0.10800
H1112       H  0.16428481  0.53124301  0.00734727     0.10800
H1113       H  0.11402946  0.52193973  0.04852053     0.10500
H1114       H  0.11171560  0.55215070  0.06411628     0.11600
H1115       H  0.15376004  0.50131696  0.01184231     0.11700
H1116       H  0.11484391  0.50249958  0.00384946     0.13600
H1117       H  0.10542978  0.48033908  0.96327772     0.10100
H1118       H  0.10646911  0.45077900  0.94331775     0.12200
H1119       H  0.15416595  0.44347699  0.99627570     0.08800
H1120       H  0.15300243  0.47276221  0.01645745     0.11600
C1121       C  0.43615944  0.37917271  0.81302287    -0.03000
C1122       C  0.44556335  0.37016383  0.78861622    -0.05600
C1123       C  0.46332015  0.37166706  0.78710233    -0.20700
C1124       C  0.47218113  0.38203808  0.81010231     0.25000
C1125       C  0.46278366  0.39117904  0.83449695    -0.18300
C1126       C  0.44494989  0.38974733  0.83588091    -0.08200
C1127       C  0.49112576  0.38278622  0.80732227    -0.18500
C1128       C  0.50164616  0.38879372  0.83147725    -0.23300
C1129       C  0.52055482  0.38793267  0.82845478     0.27100
C1130       C  0.53062540  0.39996362  0.84561874    -0.20100
C1131       C  0.54848037  0.39913749  0.84410484    -0.09700
C1132       C  0.55663196  0.38610186  0.82565705    -0.10300
C1133       C  0.54651878  0.37402318  0.80860227    -0.03200
C1134       C  0.52870504  0.37486543  0.81009177    -0.18300
H1135       H  0.43919744  0.36202182  0.77042873     0.10800
H1136       H  0.47019074  0.36454918  0.76795020     0.10800
H1137       H  0.46898369  0.39961160  0.85228021     0.10500
H1138       H  0.43804715  0.39692987  0.85487330     0.11600
H1139       H  0.49666672  0.37763117  0.78435217     0.11700
H1140       H  0.49649329  0.39446789  0.85426013     0.13600
H1141       H  0.52465238  0.41004408  0.86020833     0.10100
H1142       H  0.55588361  0.40862014  0.85764202     0.12200
H1143       H  0.55236060  0.36370617  0.79448232     0.08800
H1144       H  0.52141732  0.36496665  0.79757398     0.11600
C1145       C  0.43957278  0.37907770  0.31026219    -0.03000
C1146       C  0.44859614  0.36718452  0.29054639    -0.05600
C1147       C  0.46641790  0.36667842  0.29133960    -0.20700
C1148       C  0.47571108  0.37809197  0.31157881     0.25000
C1149       C  0.46673009  0.39026953  0.33086496    -0.18300
C1150       C  0.44883937  0.39075871  0.33010845    -0.08200
C1151       C  0.49461575  0.37622059  0.31261414    -0.18500
C1152       C  0.50550189  0.38837255  0.32358931    -0.23300
C1153       C  0.52441894  0.38624297  0.32342792     0.27100
C1154       C  0.53437154  0.39681838  0.34424916    -0.20100
C1155       C  0.55220801  0.39548467  0.34435434    -0.09700
C1156       C  0.56051636  0.38355581  0.32346332    -0.10300
C1157       C  0.55056903  0.37303278  0.30247788    -0.03200
C1158       C  0.53276356  0.37441174  0.30227073    -0.18300
H1159       H  0.44189564  0.35802419  0.27489770     0.10800
H1160       H  0.47298682  0.35718030  0.27621945     0.10800
H1161       H  0.47331033  0.39909033  0.34732821     0.10500
H1162       H  0.44226303  0.40006238  0.34565757     0.11600
H1163       H  0.49965953  0.36416355  0.30352796     0.11700
H1164       H  0.50055338  0.40036828  0.33318877     0.13600
H1165       H  0.52831645  0.40613693  0.36057990     0.10100
H1166       H  0.55947846  0.40382093  0.36079515     0.12200
H1167       H  0.55655137  0.36382966  0.28581199     0.08800
H1168       H  0.52574293  0.36643052  0.28485358     0.11600
C1169       C  0.62294486  0.38291303  0.45704365    -0.03000
C1170       C  0.61830331  0.39814137  0.47354067    -0.05600
C1171       C  0.61891734  0.39925652  0.50882724    -0.20700
C1172       C  0.62391388  0.38512552  0.52833786     0.25000
C1173       C  0.62845193  0.36987609  0.51181079    -0.18300
C1174       C  0.62793050  0.36878676  0.47666362    -0.08200
C1175       C  0.62494230  0.38678589  0.56568932    -0.18500
C1176       C  0.62285717  0.37335473  0.58659515    -0.23300
C1177       C  0.62386907  0.37453938  0.62394185     0.27100
C1178       C  0.61479794  0.36256596  0.64330686    -0.20100
C1179       C  0.61552106  0.36297655  0.67850145    -0.09700
C1180       C  0.62565057  0.37517212  0.69519701    -0.10300
C1181       C  0.63508379  0.38695171  0.67584799    -0.03200
C1182       C  0.63414186  0.38670716  0.64052649    -0.18300
H1183       H  0.61449667  0.40928625  0.45918854     0.10800
H1184       H  0.61548023  0.41118768  0.52093198     0.10800
H1185       H  0.63287462  0.35887068  0.52583626     0.10500
H1186       H  0.63169476  0.35688424  0.46484500     0.11600
H1187       H  0.62672829  0.39949320  0.57616677     0.11700
H1188       H  0.61934663  0.36101560  0.57610598     0.13600
H1189       H  0.60695196  0.35295017  0.63113885     0.10100
H1190       H  0.60817484  0.35367309  0.69267089     0.12200
H1191       H  0.64298438  0.39651333  0.68802292     0.08800
H1192       H  0.64166166  0.39584212  0.62633248     0.11600
C1193       C  0.61929928  0.38497629  0.95798132    -0.03000
C1194       C  0.60985692  0.39752427  0.97525982    -0.05600
C1195       C  0.60956260  0.39779421  0.01064462    -0.20700
C1196       C  0.61895528  0.38576523  0.02929666     0.25000
C1197       C  0.62830275  0.37319872  0.01198534    -0.18300
C1198       C  0.62845925  0.37280974  0.97682850    -0.08200
C1199       C  0.61825884  0.38594451  0.06671370    -0.18500
C1200       C  0.63153764  0.38083903  0.08584389    -0.23300
C1201       C  0.63081010  0.37974174  0.12314539     0.27100
C1202       C  0.64588314  0.38205054  0.14175945    -0.20100
C1203       C  0.64576308  0.38056163  0.17690955    -0.09700
C1204       C  0.63060442  0.37635335  0.19412113    -0.10300
C1205       C  0.61556924  0.37370262  0.17536180    -0.03200
C1206       C  0.61564745  0.37544214  0.14024014    -0.18300
H1207       H  0.60260553  0.40702011  0.96147551     0.10800
H1208       H  0.60210629  0.40748124  0.02348496     0.10800
H1209       H  0.63524034  0.36339887  0.02554664     0.10500
H1210       H  0.63581573  0.36291028  0.96441655     0.11600
H1211       H  0.60672795  0.39074537  0.07870380     0.11700
H1212       H  0.64364307  0.37777187  0.07382188     0.13600
H1213       H  0.65776014  0.38516510  0.12906581     0.10100
H1214       H  0.65756396  0.38266257  0.19059148     0.12200
H1215       H  0.60367651  0.37045808  0.18784738     0.08800
H1216       H  0.60392089  0.37309209  0.12649590     0.11600
C1217       C  0.43778787  0.61650287  0.68805364    -0.03000
C1218       C  0.44621105  0.60437679  0.66781618    -0.05600
C1219       C  0.46403206  0.60430769  0.66544875    -0.20700
C1220       C  0.47386975  0.61621818  0.68343817     0.25000
C1221       C  0.46545897  0.62845328  0.70354175    -0.18300
C1222       C  0.44762170  0.62854383  0.70587281    -0.08200
C1223       C  0.49276523  0.61576895  0.67962370    -0.18500
C1224       C  0.50364163  0.62223641  0.70266913    -0.23300
C1225       C  0.52255688  0.62191833  0.69907315     0.27100
C1226       C  0.53223073  0.63338420  0.71846857    -0.20100
C1227       C  0.55004279  0.63357423  0.71628047    -0.09700
C1228       C  0.55865307  0.62217901  0.69474361    -0.10300
C1229       C  0.54901023  0.61050435  0.67562316    -0.03200
C1230       C  0.53115426  0.61032959  0.67778790    -0.18300
H1231       H  0.43903752  0.59500396  0.65351896     0.10800
H1232       H  0.47017189  0.59485583  0.64954632     0.10800
H1233       H  0.47249197  0.63824541  0.71689674     0.10500
H1234       H  0.44153372  0.63819836  0.72134921     0.11600
H1235       H  0.49773392  0.60964768  0.65711350     0.11700
H1236       H  0.49859315  0.62826682  0.72522066     0.13600
H1237       H  0.52596556  0.64233797  0.73528204     0.10100
H1238       H  0.55705738  0.64266877  0.73154702     0.12200
H1239       H  0.55525653  0.60143608  0.65904745     0.08800
H1240       H  0.52427447  0.60088781  0.66322114     0.11600
C1241       C  0.62575980  0.55815801  0.71345402    -0.03000
C1242       C  0.61160273  0.54778623  0.70559340    -0.05600
C1243       C  0.61025355  0.53118315  0.71876771    -0.20700
C1244       C  0.62309808  0.52446726  0.73971804     0.25000
C1245       C  0.63733083  0.53480544  0.74731204    -0.18300
C1246       C  0.63863957  0.55138506  0.73430645    -0.08200
C1247       C  0.62097189  0.50696480  0.75423155    -0.18500
C1248       C  0.63425475  0.49725146  0.76442213    -0.23300
C1249       C  0.63250219  0.47958118  0.77804500     0.27100
C1250       C  0.64632796  0.46831558  0.77439715    -0.20100
C1251       C  0.64527747  0.45150531  0.78616367    -0.09700
C1252       C  0.63044989  0.44557741  0.80251225    -0.10300
C1253       C  0.61679684  0.45702853  0.80737874    -0.03200
C1254       C  0.61776959  0.47385445  0.79514320    -0.18300
H1255       H  0.60133800  0.55264928  0.68999235     0.10800
H1256       H  0.59908251  0.52358378  0.71270622     0.10800
H1257       H  0.64726985  0.53039826  0.76414014     0.10500
H1258       H  0.64963600  0.55904364  0.74122734     0.11600
H1259       H  0.60814111  0.50165763  0.75499588     0.11700
H1260       H  0.64718453  0.50192196  0.76062474     0.13600
H1261       H  0.65790442  0.47243780  0.76172867     0.10100
H1262       H  0.65607095  0.44307932  0.78214277     0.12200
H1263       H  0.60520090  0.45286535  0.81989878     0.08800
H1264       H  0.60704968  0.48233521  0.79929029     0.11600
C1265       C  0.56213605  0.61425242  0.18297790    -0.03000
C1266       C  0.55451198  0.60174546  0.16233335    -0.05600
C1267       C  0.53671302  0.60020852  0.16060789    -0.20700
C1268       C  0.52613437  0.61121974  0.17916075     0.25000
C1269       C  0.53377266  0.62355112  0.20026136    -0.18300
C1270       C  0.55154921  0.62508755  0.20199659    -0.08200
C1271       C  0.50725323  0.60915139  0.17684446    -0.18500
C1272       C  0.49633780  0.62207461  0.18311100    -0.23300
C1273       C  0.47739785  0.62048502  0.18319642     0.27100
C1274       C  0.46804130  0.63307838  0.20026877    -0.20100
C1275       C  0.45023987  0.63250936  0.20119721    -0.09700
C1276       C  0.44123111  0.61938896  0.18470187    -0.10300
C1277       C  0.45053718  0.60677175  0.16729921    -0.03200
C1278       C  0.46847333  0.60728124  0.16656187    -0.18300
H1279       H  0.56228913  0.59309731  0.14750828     0.10800
H1280       H  0.53118250  0.59047196  0.14450824     0.10800
H1281       H  0.52613960  0.63183683  0.21606899     0.10500
H1282       H  0.55698915  0.63471329  0.21845978     0.11600
H1283       H  0.50238542  0.59667946  0.16970563     0.11700
H1284       H  0.50145286  0.63456222  0.18947671     0.13600
H1285       H  0.47455275  0.64341756  0.21317861     0.10100
H1286       H  0.44353541  0.64249219  0.21473448     0.12200
H1287       H  0.44396980  0.59653285  0.15422338     0.08800
H1288       H  0.47517906  0.59753018  0.15248180     0.11600
C1289       C  0.62653661  0.61689043  0.05524004    -0.03000
C1290       C  0.62259845  0.60190960  0.03722256    -0.05600
C1291       C  0.62349873  0.60171080  0.00189958    -0.20700
C1292       C  0.62815510  0.61649577  0.98394202     0.25000
C1293       C  0.63217020  0.63142398  0.00204604    -0.18300
C1294       C  0.63129595  0.63162133  0.03717238    -0.08200
C1295       C  0.62935684  0.61584055  0.94653633    -0.18500
C1296       C  0.62779166  0.62983516  0.92693586    -0.23300
C1297       C  0.62900160  0.62943104  0.88960684     0.27100
C1298       C  0.62043455  0.64203548  0.87099231    -0.20100
C1299       C  0.62090520  0.64190522  0.83577374    -0.09700
C1300       C  0.63024874  0.62932745  0.81842491    -0.10300
C1301       C  0.63943148  0.61712299  0.83706644    -0.03200
C1302       C  0.63878095  0.61712879  0.87234000    -0.18300
H1303       H  0.61902782  0.59030909  0.05039309     0.10800
H1304       H  0.62052260  0.58999189  0.98855396     0.10800
H1305       H  0.63641502  0.64290773  0.98934228     0.10500
H1306       H  0.63457546  0.64334796  0.05019414     0.11600
H1307       H  0.63087844  0.60337452  0.93485722     0.11700
H1308       H  0.62451408  0.64200696  0.93837972     0.13600
H1309       H  0.61304060  0.65180861  0.88373926     0.10100
H1310       H  0.61382371  0.65157701  0.82211181     0.12200
H1311       H  0.64679241  0.60731342  0.82438136     0.08800
H1312       H  0.64601716  0.60757463  0.88594500     0.11600
C1313       C  0.61831575  0.62136975  0.55607819    -0.03000
C1314       C  0.61773251  0.63721640  0.53942254    -0.05600
C1315       C  0.61717229  0.63803330  0.50426737    -0.20700
C1316       C  0.61762785  0.62306798  0.48482340     0.25000
C1317       C  0.61778296  0.60712313  0.50138592    -0.18300
C1318       C  0.61796970  0.60629562  0.53678966    -0.08200
C1319       C  0.61774176  0.62477542  0.44747099    -0.18500
C1320       C  0.62548969  0.61358756  0.42661796    -0.23300
C1321       C  0.62675899  0.61635971  0.38949377     0.27100
C1322       C  0.64038705  0.60898428  0.37158243    -0.20100
C1323       C  0.64193718  0.61130950  0.33665563    -0.09700
C1324       C  0.62972612  0.62089705  0.31876448    -0.10300
C1325       C  0.61604926  0.62821895  0.33671730    -0.03200
C1326       C  0.61454980  0.62595951  0.37159491    -0.18300
H1327       H  0.61779082  0.64904389  0.55366140     0.10800
H1328       H  0.61683025  0.65045530  0.49217179     0.10800
H1329       H  0.61768214  0.59532775  0.48710156     0.10500
H1330       H  0.61835843  0.59392276  0.54904089     0.11600
H1331       H  0.61255691  0.63653364  0.43715391     0.11700
H1332       H  0.63217453  0.60268149  0.43725376     0.13600
H1333       H  0.64989959  0.60142855  0.38468214     0.10100
H1334       H  0.65250937  0.60530000  0.32359138     0.12200
H1335       H  0.60628956  0.63549493  0.32372856     0.08800
H1336       H  0.60357423  0.63141731  0.38422620     0.11600
C1337       C  0.63234334  0.55502996  0.21270246    -0.03000
C1338       C  0.61987806  0.54366887  0.20033847    -0.05600
C1339       C  0.61860196  0.52702058  0.21312717    -0.20700
C1340       C  0.62985004  0.52124923  0.23826356     0.25000
C1341       C  0.64245580  0.53253490  0.25039747    -0.18300
C1342       C  0.64369233  0.54919525  0.23772322    -0.08200
C1343       C  0.62758929  0.50370357  0.25224308    -0.18500
C1344       C  0.64039716  0.49470326  0.26642853    -0.23300
C1345       C  0.63828168  0.47698680  0.27945503     0.27100
C1346       C  0.65238346  0.46593052  0.27869160    -0.20100
C1347       C  0.65088632  0.44906241  0.28997730    -0.09700
C1348       C  0.63531510  0.44293483  0.30302878    -0.10300
C1349       C  0.62133071  0.45418259  0.30499825    -0.03200
C1350       C  0.62276163  0.47102698  0.29316796    -0.18300
H1351       H  0.61082247  0.54775396  0.18132351     0.10800
H1352       H  0.60870945  0.51864254  0.20348483     0.10800
H1353       H  0.65105047  0.52876870  0.27042810     0.10500
H1354       H  0.65330304  0.55764257  0.24818539     0.11600
H1355       H  0.61515464  0.49770757  0.24916902     0.11700
H1356       H  0.65323749  0.49998750  0.26650089     0.13600
H1357       H  0.66452557  0.47025365  0.26861653     0.10100
H1358       H  0.66192772  0.44075593  0.28824412     0.12200
H1359       H  0.60916284  0.44983727  0.31488084     0.08800
H1360       H  0.61176219  0.47936434  0.29499704     0.11600
C1361       C  0.93847353  0.61682249  0.56489462    -0.03000
C1362       C  0.94688693  0.60519597  0.58625782    -0.05600
C1363       C  0.96476239  0.60483953  0.58786230    -0.20700
C1364       C  0.97464901  0.61592273  0.56792051     0.25000
C1365       C  0.96623062  0.62765836  0.54674115    -0.18300
C1366       C  0.94837687  0.62804188  0.54518823    -0.08200
C1367       C  0.99362147  0.61527517  0.57075345    -0.18500
C1368       C  0.00425121  0.62059805  0.54606620    -0.23300
C1369       C  0.02325290  0.62045430  0.54852783     0.27100
C1370       C  0.03261356  0.63076324  0.52614615    -0.20100
C1371       C  0.05046742  0.63115919  0.52728491    -0.09700
C1372       C  0.05946193  0.62109740  0.55070180    -0.10300
C1373       C  0.05013229  0.61054892  0.57280217    -0.03200
C1374       C  0.03223402  0.61020115  0.57174235    -0.18300
H1375       H  0.93967014  0.59644345  0.60195248     0.10800
H1376       H  0.97090257  0.59579938  0.60465000     0.10800
H1377       H  0.97329477  0.63685215  0.53187337     0.10500
H1378       H  0.94233302  0.63728661  0.52871926     0.11600
H1379       H  0.99882734  0.61006471  0.59392207     0.11700
H1380       H  0.99888566  0.62559461  0.52283905     0.13600
H1381       H  0.02606947  0.63868721  0.50782746     0.10100
H1382       H  0.05721618  0.63937813  0.50975436     0.12200
H1383       H  0.05665832  0.60256153  0.59100946     0.08800
H1384       H  0.02561091  0.60168221  0.58880704     0.11600
C1385       C  0.80539157  0.62469698  0.58500588    -0.03000
C1386       C  0.79312167  0.61908115  0.56156204    -0.05600
C1387       C  0.77566684  0.61972918  0.56938764    -0.20700
C1388       C  0.77012526  0.62566056  0.60099721     0.25000
C1389       C  0.78238921  0.63135024  0.62439542    -0.18300
C1390       C  0.79980348  0.63089276  0.61644817    -0.08200
C1391       C  0.75149531  0.62627287  0.60843125    -0.18500
C1392       C  0.74509498  0.62472245  0.63987861    -0.23300
C1393       C  0.72648544  0.62502510  0.64750655     0.27100
C1394       C  0.72043626  0.61623049  0.67599417    -0.20100
C1395       C  0.70301630  0.61623728  0.68406722    -0.09700
C1396       C  0.69126180  0.62526595  0.66403438    -0.10300
C1397       C  0.69739222  0.63440028  0.63589520    -0.03200
C1398       C  0.71480056  0.63428423  0.62769967    -0.18300
H1399       H  0.79699460  0.61431888  0.53706379     0.10800
H1400       H  0.76646133  0.61542341  0.55081052     0.10800
H1401       H  0.77857903  0.63646417  0.64862657     0.10500
H1402       H  0.80891128  0.63535429  0.63505683     0.11600
H1403       H  0.74280584  0.62708730  0.58713005     0.11700
H1404       H  0.75372234  0.62214942  0.66072561     0.13600
H1405       H  0.72920768  0.60915251  0.69186046     0.10100
H1406       H  0.69876796  0.60914617  0.70600022     0.12200
H1407       H  0.68873014  0.64163685  0.62009096     0.08800
H1408       H  0.71908115  0.64165802  0.60618047     0.11600
C1409       C  0.94091901  0.61625952  0.06362429    -0.03000
C1410       C  0.94917650  0.60600174  0.08779664    -0.05600
C1411       C  0.96701355  0.60458767  0.08814280    -0.20700
C1412       C  0.97706710  0.61343318  0.06451834     0.25000
C1413       C  0.96878859  0.62354210  0.04004125    -0.18300
C1414       C  0.95095197  0.62500568  0.03976832    -0.08200
C1415       C  0.99602826  0.61139921  0.06570186    -0.18500
C1416       C  0.00700618  0.62290718  0.05245042    -0.23300
C1417       C  0.02604744  0.62150520  0.05312713     0.27100
C1418       C  0.03549222  0.63355959  0.03461570    -0.20100
C1419       C  0.05333784  0.63333904  0.03474044    -0.09700
C1420       C  0.06233927  0.62106636  0.05358799    -0.10300
C1421       C  0.05296928  0.60886548  0.07201049    -0.03200
C1422       C  0.03502144  0.60904993  0.07181008    -0.18300
H1423       H  0.94186108  0.59905472  0.10654144     0.10800
H1424       H  0.97299608  0.59660985  0.10710805     0.10800
H1425       H  0.97592425  0.63009232  0.02056293     0.10500
H1426       H  0.94500943  0.63284169  0.02054700     0.11600
H1427       H  0.00088165  0.60022460  0.07867857     0.11700
H1428       H  0.00186043  0.63427625  0.04054064     0.13600
H1429       H  0.02902392  0.64331396  0.02000176     0.10100
H1430       H  0.06007664  0.64297257  0.02027103     0.12200
H1431       H  0.05950171  0.59924657  0.08682634     0.08800
H1432       H  0.02841224  0.59957866  0.08676377     0.11600
C1433       C  0.87651130  0.61872271  0.69510833    -0.03000
C1434       C  0.87643678  0.63465989  0.71148622    -0.05600
C1435       C  0.87719890  0.63567952  0.74656009    -0.20700
C1436       C  0.87766100  0.62081778  0.76625009     0.25000
C1437       C  0.87797641  0.60478635  0.75004457    -0.18300
C1438       C  0.87754721  0.60376286  0.71467280    -0.08200
C1439       C  0.87828078  0.62275145  0.80346934    -0.18500
C1440       C  0.87134821  0.61146412  0.82518664    -0.23300
C1441       C  0.87117749  0.61436313  0.86230332     0.27100
C1442       C  0.85814018  0.60701037  0.88189382    -0.20100
C1443       C  0.85766374  0.60949892  0.91687658    -0.09700
C1444       C  0.87037136  0.61924622  0.93308159    -0.10300
C1445       C  0.88348233  0.62650078  0.91344753    -0.03200
C1446       C  0.88391672  0.62406498  0.87853020    -0.18300
H1447       H  0.87584289  0.64642714  0.69711105     0.10800
H1448       H  0.87713632  0.64816647  0.75841031     0.10800
H1449       H  0.87875989  0.59309432  0.76457962     0.10500
H1450       H  0.87769042  0.59132047  0.70268060     0.11600
H1451       H  0.88343393  0.63468912  0.81308782     0.11700
H1452       H  0.86462515  0.60035573  0.81542658     0.13600
H1453       H  0.84824827  0.59938012  0.87006850     0.10100
H1454       H  0.84748112  0.60356809  0.93126527     0.12200
H1455       H  0.89358981  0.63390132  0.92510757     0.08800
H1456       H  0.89448203  0.62949076  0.86450679     0.11600
C1457       C  0.86857825  0.62586309  0.43255339    -0.03000
C1458       C  0.85352275  0.62161024  0.41507295    -0.05600
C1459       C  0.85321050  0.62163118  0.37983082    -0.20700
C1460       C  0.86799141  0.62558371  0.36136133     0.25000
C1461       C  0.88300396  0.63006840  0.37875559    -0.18300
C1462       C  0.88327402  0.63024143  0.41400482    -0.08200
C1463       C  0.86718746  0.62550886  0.32403936    -0.18500
C1464       C  0.88074981  0.62177430  0.30448607    -0.23300
C1465       C  0.87983074  0.62180438  0.26716943     0.27100
C1466       C  0.89025738  0.61058367  0.24876674    -0.20100
C1467       C  0.88961110  0.61032578  0.21351069    -0.09700
C1468       C  0.87877256  0.62157078  0.19602320    -0.10300
C1469       C  0.86862124  0.63307541  0.21449421    -0.03200
C1470       C  0.86910745  0.63317045  0.24969675    -0.18300
H1471       H  0.84195988  0.61825872  0.42862094     0.10800
H1472       H  0.84145137  0.61832101  0.36693788     0.10800
H1473       H  0.89448070  0.63368389  0.36522227     0.10500
H1474       H  0.89505502  0.63362700  0.42671595     0.11600
H1475       H  0.85481621  0.62775450  0.31240915     0.11700
H1476       H  0.89265883  0.61772807  0.31608023     0.13600
H1477       H  0.89875333  0.60184777  0.26173088     0.10100
H1478       H  0.89767295  0.60140914  0.19994617     0.12200
H1479       H  0.86017840  0.64193998  0.20174870     0.08800
H1480       H  0.86128261  0.64233477  0.26313074     0.11600
C1481       C  0.80917881  0.62571523  0.09378453    -0.03000
C1482       C  0.80561711  0.63152634  0.12663340    -0.05600
C1483       C  0.78907796  0.63063654  0.13969360    -0.20700
C1484       C  0.77562607  0.62427170  0.12005972     0.25000
C1485       C  0.77905799  0.61860293  0.08699886    -0.18300
C1486       C  0.79572817  0.61923801  0.07405232    -0.08200
C1487       C  0.75834353  0.62330069  0.13535301    -0.18500
C1488       C  0.74392814  0.62488331  0.11723034    -0.23300
C1489       C  0.72667947  0.62513395  0.13279483     0.27100
C1490       C  0.71371709  0.63432463  0.11660063    -0.20100
C1491       C  0.69719805  0.63462589  0.12982953    -0.09700
C1492       C  0.69314451  0.62548788  0.15939244    -0.10300
C1493       C  0.70614129  0.61627508  0.17574347    -0.03200
C1494       C  0.72278051  0.61611231  0.16260080    -0.18300
H1495       H  0.81572410  0.63637318  0.14268836     0.10800
H1496       H  0.78677373  0.63497330  0.16526245     0.10800
H1497       H  0.76901353  0.61325352  0.07145798     0.10500
H1498       H  0.79811952  0.61453314  0.04878553     0.11600
H1499       H  0.75754900  0.62257326  0.16267847     0.11700
H1500       H  0.74479873  0.62736026  0.09031226     0.13600
H1501       H  0.71638288  0.64131306  0.09357719     0.10100
H1502       H  0.68750579  0.64177310  0.11636837     0.12200
H1503       H  0.70339499  0.60895801  0.19830613     0.08800
H1504       H  0.73240879  0.60854797  0.17528167     0.11600
C1505       C  0.93858394  0.38602221  0.94288683    -0.03000
C1506       C  0.94682462  0.39849533  0.92312132    -0.05600
C1507       C  0.96461791  0.40023661  0.92393308    -0.20700
C1508       C  0.97461004  0.38972398  0.94474720     0.25000
C1509       C  0.96636939  0.37732460  0.96479030    -0.18300
C1510       C  0.94856894  0.37553893  0.96389368    -0.08200
C1511       C  0.99356035  0.39134248  0.94309597    -0.18500
C1512       C  0.00416858  0.38595145  0.96768848    -0.23300
C1513       C  0.02316431  0.38611042  0.96489640     0.27100
C1514       C  0.03257112  0.37532705  0.98623188    -0.20100
C1515       C  0.05036505  0.37437058  0.98368556    -0.09700
C1516       C  0.05924563  0.38432074  0.95985751    -0.10300
C1517       C  0.04991167  0.39554866  0.93920079    -0.03200
C1518       C  0.03207910  0.39647340  0.94169537    -0.18300
H1519       H  0.93955232  0.40679455  0.90664597     0.10800
H1520       H  0.97062428  0.40979763  0.90804688     0.10800
H1521       H  0.97357179  0.36859336  0.98041921     0.10500
H1522       H  0.94265111  0.36577196  0.97938523     0.11600
H1523       H  0.99880167  0.39696334  0.92030616     0.11700
H1524       H  0.99880524  0.38048273  0.99053509     0.13600
H1525       H  0.02609032  0.36733872  0.00458015     0.10100
H1526       H  0.05714664  0.36572621  0.00029725     0.12200
H1527       H  0.05637352  0.40356620  0.92090348     0.08800
H1528       H  0.02545526  0.40541333  0.92554575     0.11600
C1529       C  0.68866062  0.37379499  0.85160943    -0.03000
C1530       C  0.69290819  0.36578749  0.88229170    -0.05600
C1531       C  0.70981381  0.36525735  0.89350238    -0.20700
C1532       C  0.72299782  0.37249216  0.87423881     0.25000
C1533       C  0.71887603  0.38031430  0.84324262    -0.18300
C1534       C  0.70186006  0.38097406  0.83208716    -0.08200
C1535       C  0.74063943  0.37235479  0.88832265    -0.18500
C1536       C  0.75486565  0.37328099  0.86927536    -0.23300
C1537       C  0.77243755  0.37288408  0.88367844     0.27100
C1538       C  0.78582945  0.36677714  0.86351431    -0.20100
C1539       C  0.80260686  0.36661078  0.87557502    -0.09700
C1540       C  0.80650743  0.37282765  0.90802133    -0.10300
C1541       C  0.79311274  0.37903885  0.92826277    -0.03200
C1542       C  0.77623422  0.37903033  0.91627087    -0.18300
H1543       H  0.68310241  0.36017778  0.89813489     0.10800
H1544       H  0.71259130  0.35923409  0.91749867     0.10800
H1545       H  0.72863603  0.38639536  0.82804002     0.10500
H1546       H  0.69901707  0.38731829  0.80846625     0.11600
H1547       H  0.74189672  0.37058022  0.91538016     0.11700
H1548       H  0.75370843  0.37339946  0.84198084     0.13600
H1549       H  0.78330260  0.36210446  0.83826542     0.10100
H1550       H  0.81259628  0.36189540  0.85908617     0.12200
H1551       H  0.79569448  0.38407351  0.95319857     0.08800
H1552       H  0.76630429  0.38427330  0.93221974     0.11600
C1553       C  0.86401270  0.44302722  0.96186876    -0.03000
C1554       C  0.84868134  0.44889820  0.97628357    -0.05600
C1555       C  0.84740925  0.46556275  0.98865623    -0.20700
C1556       C  0.86149494  0.47665794  0.98752297     0.25000
C1557       C  0.87675794  0.47096360  0.97236260    -0.18300
C1558       C  0.87796840  0.45431157  0.95954810    -0.08200
C1559       C  0.85953132  0.49418969  0.00143404    -0.18500
C1560       C  0.87265165  0.50351284  0.01359190    -0.23300
C1561       C  0.87063762  0.52116992  0.02707274     0.27100
C1562       C  0.88318691  0.52774691  0.04885135    -0.20100
C1563       C  0.88241980  0.54471449  0.06002899    -0.09700
C1564       C  0.86916398  0.55555715  0.04931703    -0.10300
C1565       C  0.85634717  0.54882901  0.02823942    -0.03200
C1566       C  0.85708913  0.53187989  0.01715728    -0.18300
H1567       H  0.83767285  0.44054036  0.97828824     0.10800
H1568       H  0.83544685  0.46970188  0.99978071     0.10800
H1569       H  0.88771672  0.47934322  0.97010817     0.10500
H1570       H  0.88995703  0.45013529  0.94860831     0.11600
H1571       H  0.84660961  0.49914198  0.00329491     0.11700
H1572       H  0.88531470  0.49786351  0.01472518     0.13600
H1573       H  0.89378857  0.51981453  0.05677721     0.10100
H1574       H  0.89255608  0.54949541  0.07609042     0.12200
H1575       H  0.84600440  0.55682775  0.01931693     0.08800
H1576       H  0.84738672  0.52751725  0.99972599     0.11600
C1577       C  0.94232036  0.37907104  0.44370742    -0.03000
C1578       C  0.95059534  0.36921040  0.46845699    -0.05600
C1579       C  0.96838897  0.36921912  0.47103011    -0.20700
C1580       C  0.97843654  0.37896567  0.44886998     0.25000
C1581       C  0.97019291  0.38890780  0.42406568    -0.18300
C1582       C  0.95232263  0.38892321  0.42152556    -0.08200
C1583       C  0.99732783  0.37865745  0.45348332    -0.18500
C1584       C  0.00870540  0.38397845  0.43017370    -0.23300
C1585       C  0.02754213  0.38343084  0.43536745     0.27100
C1586       C  0.03793248  0.39435791  0.41613448    -0.20100
C1587       C  0.05571934  0.39403418  0.41957874    -0.09700
C1588       C  0.06356071  0.38263269  0.44220079    -0.10300
C1589       C  0.05316953  0.37165431  0.46145307    -0.03200
C1590       C  0.03537823  0.37197687  0.45799888    -0.18300
H1591       H  0.94332463  0.36150153  0.48607384     0.10800
H1592       H  0.97434012  0.36151883  0.49047328     0.10800
H1593       H  0.97733783  0.39696427  0.40696955     0.10500
H1594       H  0.94634576  0.39673149  0.40230409     0.11600
H1595       H  0.00195316  0.37368690  0.47733069     0.11700
H1596       H  0.00424789  0.38918419  0.40642420     0.13600
H1597       H  0.03225567  0.40321693  0.39837136     0.10100
H1598       H  0.06332438  0.40264593  0.40429834     0.12200
H1599       H  0.05878949  0.36259878  0.47888694     0.08800
H1600       H  0.02793871  0.36292693  0.47250271     0.11600
C1601       C  0.86918401  0.37953348  0.56778680    -0.03000
C1602       C  0.85347907  0.38273830  0.58380746    -0.05600
C1603       C  0.85255470  0.38386994  0.61899306    -0.20700
C1604       C  0.86734532  0.38224217  0.63877009     0.25000
C1605       C  0.88307852  0.37911462  0.62274872    -0.18300
C1606       C  0.88396467  0.37772021  0.58764627    -0.08200
C1607       C  0.86581149  0.38275676  0.67605398    -0.18500
C1608       C  0.87857385  0.38793490  0.69647384    -0.23300
C1609       C  0.87735946  0.38713029  0.73381371     0.27100
C1610       C  0.88684291  0.39864595  0.75355622    -0.20100
C1611       C  0.88633148  0.39773082  0.78885699    -0.09700
C1612       C  0.87654924  0.38505113  0.80501173    -0.10300
C1613       C  0.86721669  0.37343122  0.78511996    -0.03200
C1614       C  0.86761013  0.37444708  0.74999384    -0.18300
H1615       H  0.84186835  0.38412481  0.56918065     0.10800
H1616       H  0.84025908  0.38607812  0.63081782     0.10800
H1617       H  0.89465012  0.37730073  0.63727651     0.10500
H1618       H  0.89626278  0.37526875  0.57603468     0.11600
H1619       H  0.85358448  0.37910828  0.68691416     0.11700
H1620       H  0.89016223  0.39327043  0.68560133     0.13600
H1621       H  0.89460645  0.40840637  0.74162283     0.10100
H1622       H  0.89370709  0.40682471  0.80345509     0.12200
H1623       H  0.85958167  0.36346098  0.79668415     0.08800
H1624       H  0.86058479  0.36500610  0.73561614     0.11600
C1625       C  0.88192156  0.37481757  0.30491978    -0.03000
C1626       C  0.88100071  0.35862537  0.28958640    -0.05600
C1627       C  0.88135890  0.35700757  0.25450782    -0.20700
C1628       C  0.88218194  0.37152643  0.23385909     0.25000
C1629       C  0.88339899  0.38776576  0.24905124    -0.18300
C1630       C  0.88339351  0.38937497  0.28431849    -0.08200
C1631       C  0.88182831  0.36917493  0.19667313    -0.18500
C1632       C  0.87409470  0.38026787  0.17566791    -0.23300
C1633       C  0.87245696  0.37740298  0.13865676     0.27100
C1634       C  0.85916040  0.38554863  0.12114444    -0.20100
C1635       C  0.85755345  0.38377512  0.08614468    -0.09700
C1636       C  0.86937378  0.37396089  0.06772937    -0.10300
C1637       C  0.88256092  0.36559304  0.08533997    -0.03200
C1638       C  0.88411052  0.36729756  0.12036106    -0.18300
H1639       H  0.87998406  0.34715121  0.30476611     0.10800
H1640       H  0.88056664  0.34436144  0.24342115     0.10800
H1641       H  0.88445649  0.39918467  0.23375516     0.10500
H1642       H  0.88413670  0.40200596  0.29544556     0.11600
H1643       H  0.88671131  0.35717836  0.18682735     0.11700
H1644       H  0.86775270  0.39140467  0.18624961     0.13600
H1645       H  0.85004363  0.39344387  0.13457977     0.10100
H1646       H  0.84733036  0.39051235  0.07341471     0.12200
H1647       H  0.89198553  0.35805085  0.07195608     0.08800
H1648       H  0.89477763  0.36113925  0.13273544     0.11600
C1649       C  0.81029070  0.37344762  0.40716288    -0.03000
C1650       C  0.80642116  0.36690380  0.37501305    -0.05600
C1651       C  0.78959070  0.36649847  0.36334607    -0.20700
C1652       C  0.77612930  0.37229076  0.38369851     0.25000
C1653       C  0.77990624  0.37879761  0.41602513    -0.18300
C1654       C  0.79685955  0.37945067  0.42756085    -0.08200
C1655       C  0.75850266  0.37198250  0.36961849    -0.18500
C1656       C  0.74434696  0.37066220  0.38878329    -0.23300
C1657       C  0.72674305  0.37006022  0.37454663     0.27100
C1658       C  0.71377769  0.36217797  0.39344004    -0.20100
C1659       C  0.69687758  0.36213888  0.38200162    -0.09700
C1660       C  0.69245131  0.37023498  0.35153410    -0.10300
C1661       C  0.70547220  0.37792306  0.33227526    -0.03200
C1662       C  0.72244416  0.37783589  0.34362310    -0.18300
H1663       H  0.81647569  0.36234444  0.35850037     0.10800
H1664       H  0.78706893  0.36157527  0.33828641     0.10800
H1665       H  0.76988685  0.38377207  0.43209860     0.10500
H1666       H  0.79945664  0.38463733  0.45237288     0.11600
H1667       H  0.75727557  0.37184983  0.34233740     0.11700
H1668       H  0.74566822  0.36912474  0.41588527     0.13600
H1669       H  0.71671132  0.35614789  0.41735056     0.10100
H1670       H  0.68719510  0.35614343  0.39758242     0.12200
H1671       H  0.70249822  0.38434857  0.30880006     0.08800
H1672       H  0.73200419  0.38438926  0.32869008     0.11600
C1673       C  0.87368461  0.44320055  0.45164956    -0.03000
C1674       C  0.88759174  0.45367178  0.44263902    -0.05600
C1675       C  0.88863677  0.47054358  0.45449195    -0.20700
C1676       C  0.87575923  0.47734643  0.47529390     0.25000
C1677       C  0.86173580  0.46691178  0.48381045    -0.18300
C1678       C  0.86067854  0.45014592  0.47196456    -0.08200
C1679       C  0.87765632  0.49501582  0.48892846    -0.18500
C1680       C  0.86426392  0.50439150  0.49973818    -0.23300
C1681       C  0.86565945  0.52202676  0.51347233     0.27100
C1682       C  0.85113896  0.53251953  0.51226683    -0.20100
C1683       C  0.85171283  0.54923967  0.52449905    -0.09700
C1684       C  0.86676373  0.55580509  0.53887900    -0.10300
C1685       C  0.88119122  0.54516197  0.54119608    -0.03200
C1686       C  0.88068373  0.52842659  0.52849297    -0.18300
H1687       H  0.89792046  0.44868209  0.42732901     0.10800
H1688       H  0.89963838  0.47824169  0.44772155     0.10800
H1689       H  0.85179452  0.47133967  0.50062460     0.10500
H1690       H  0.84985238  0.44243701  0.47970813     0.11600
H1691       H  0.89036290  0.50061027  0.48885360     0.11700
H1692       H  0.85141827  0.49937448  0.49676962     0.13600
H1693       H  0.83934622  0.52785720  0.50124492     0.10100
H1694       H  0.84035927  0.55709574  0.52248010     0.12200
H1695       H  0.89298230  0.54991253  0.55204796     0.08800
H1696       H  0.89198973  0.52055425  0.53074639     0.11600
C1697       C  0.12030748  0.19150007  0.92368235    -0.03000
C1698       C  0.12826937  0.20073384  0.89759993    -0.05600
C1699       C  0.12775131  0.21860074  0.89722775    -0.20700
C1700       C  0.11943818  0.22767790  0.92301797     0.25000
C1701       C  0.11093548  0.21842886  0.94850189    -0.18300
C1702       C  0.11139695  0.20054961  0.94880559    -0.08200
C1703       C  0.11998155  0.24669801  0.92218016    -0.18500
C1704       C  0.11735448  0.25671620  0.94939359    -0.23300
C1705       C  0.11868554  0.27568012  0.94839582     0.27100
C1706       C  0.10960794  0.28532098  0.97228532    -0.20100
C1707       C  0.11062336  0.30317835  0.97236823    -0.09700
C1708       C  0.12091924  0.31181221  0.94872618    -0.10300
C1709       C  0.13025851  0.30213407  0.92518623    -0.03200
C1710       C  0.12920956  0.28427864  0.92506628    -0.18300
H1711       H  0.13509141  0.19417582  0.87765768     0.10800
H1712       H  0.13420695  0.22537730  0.87704433     0.10800
H1713       H  0.10383396  0.22483826  0.96817192     0.10500
H1714       H  0.10494915  0.19382589  0.96905318     0.11600
H1715       H  0.12318313  0.25258572  0.89820460     0.11700
H1716       H  0.11399049  0.25100663  0.97342183     0.13600
H1717       H  0.10157245  0.27901342  0.99077878     0.10100
H1718       H  0.10331798  0.31021200  0.99097954     0.12200
H1719       H  0.13847439  0.30834869  0.90689943     0.08800
H1720       H  0.13692151  0.27730392  0.90707547     0.11600
C1721       C  0.12495589  0.31140853  0.44896367    -0.03000
C1722       C  0.11336262  0.30285625  0.47024567    -0.05600
C1723       C  0.11267391  0.28497581  0.47082612    -0.20700
C1724       C  0.12344453  0.27520806  0.45004154     0.25000
C1725       C  0.13515318  0.28377131  0.42892769    -0.18300
C1726       C  0.13582109  0.30163837  0.42830365    -0.08200
C1727       C  0.12250002  0.25620170  0.45205350    -0.18500
C1728       C  0.12799175  0.24573687  0.42725340    -0.23300
C1729       C  0.12751188  0.22670631  0.42888405     0.27100
C1730       C  0.13755939  0.21747294  0.40586082    -0.20100
C1731       C  0.13744846  0.19960768  0.40576167    -0.09700
C1732       C  0.12717080  0.19047446  0.42862228    -0.10300
C1733       C  0.11703567  0.19967542  0.45165574    -0.03200
C1734       C  0.11715357  0.21758281  0.45177219    -0.18300
H1735       H  0.10483664  0.30996927  0.48656993     0.10800
H1736       H  0.10364036  0.27874191  0.48753958     0.10800
H1737       H  0.14412934  0.27682084  0.41338061     0.10500
H1738       H  0.14503681  0.30779308  0.41188268     0.11600
H1739       H  0.11694706  0.25083453  0.47477273     0.11700
H1740       H  0.13331669  0.25125209  0.40444564     0.13600
H1741       H  0.14560322  0.22412325  0.38785428     0.10100
H1742       H  0.14541557  0.19296105  0.38766378     0.12200
H1743       H  0.10889979  0.19304181  0.46950850     0.08800
H1744       H  0.10886476  0.22408894  0.46940229     0.11600
C1745       C  0.12945268  0.11914394  0.79863901    -0.03000
C1746       C  0.14290298  0.12821875  0.78323456    -0.05600
C1747       C  0.14532585  0.12757435  0.74842742    -0.20700
C1748       C  0.13420345  0.11813249  0.72798271     0.25000
C1749       C  0.12091511  0.10870383  0.74323532    -0.18300
C1750       C  0.11862626  0.10913480  0.77835514    -0.08200
C1751       C  0.13693863  0.11856191  0.69095202    -0.18500
C1752       C  0.12402599  0.11777868  0.66862445    -0.23300
C1753       C  0.12645344  0.12028025  0.63174623     0.27100
C1754       C  0.11263827  0.12628691  0.61260799    -0.20100
C1755       C  0.11422730  0.12862684  0.57780343    -0.09700
C1756       C  0.12964782  0.12477276  0.56117749    -0.10300
C1757       C  0.14353859  0.11880574  0.58033785    -0.03200
C1758       C  0.14197716  0.11657555  0.61525670    -0.18300
H1759       H  0.15165336  0.13585833  0.79813146     0.10800
H1760       H  0.15573871  0.13480821  0.73732953     0.10800
H1761       H  0.11238664  0.10092884  0.72814911     0.10500
H1762       H  0.10827180  0.10187469  0.78954816     0.11600
H1763       H  0.14977831  0.12139871  0.68212192     0.11700
H1764       H  0.11099318  0.11664409  0.67788569     0.13600
H1765       H  0.10053892  0.12918356  0.62464548     0.10100
H1766       H  0.10321213  0.13309886  0.56382677     0.12200
H1767       H  0.15553856  0.11556944  0.56827935     0.08800
H1768       H  0.15279559  0.11152306  0.62898936     0.11600
C1769       C  0.12599814  0.11972643  0.29787778    -0.03000
C1770       C  0.11571682  0.10771165  0.28096385    -0.05600
C1771       C  0.11473609  0.10774162  0.24568436    -0.20700
C1772       C  0.12424084  0.11954519  0.22667609     0.25000
C1773       C  0.13459848  0.13147975  0.24358267    -0.18300
C1774       C  0.13545590  0.13156383  0.27874301    -0.08200
C1775       C  0.12253200  0.11977010  0.18941496    -0.18500
C1776       C  0.13534786  0.12477005  0.16899715    -0.23300
C1777       C  0.13364577  0.12568912  0.13185519     0.27100
C1778       C  0.14805882  0.12251956  0.11180366    -0.20100
C1779       C  0.14699856  0.12350364  0.07670330    -0.09700
C1780       C  0.13155340  0.12804451  0.06093518    -0.10300
C1781       C  0.11720664  0.13166494  0.08108817    -0.03200
C1782       C  0.11821396  0.13041847  0.11624834    -0.18300
H1783       H  0.10823543  0.09846159  0.29498486     0.10800
H1784       H  0.10656522  0.09851344  0.23319272     0.10800
H1785       H  0.14171819  0.14107948  0.22977787     0.10500
H1786       H  0.14347599  0.14101552  0.29094290     0.11600
H1787       H  0.11062470  0.11520659  0.17852514     0.11700
H1788       H  0.14782752  0.12758729  0.17966990     0.13600
H1789       H  0.16012086  0.11903952  0.12333669     0.10100
H1790       H  0.15829764  0.12067333  0.06190296     0.12200
H1791       H  0.10513342  0.13518455  0.06967869     0.08800
H1792       H  0.10700283  0.13339457  0.13117157     0.11600
C1793       C  0.37308079  0.30716129  0.82518680    -0.03000
C1794       C  0.36171500  0.29852442  0.84678286    -0.05600
C1795       C  0.36220023  0.28070858  0.84958280    -0.20700
C1796       C  0.37411223  0.27106342  0.83113115     0.25000
C1797       C  0.38545782  0.27969215  0.80934635    -0.18300
C1798       C  0.38494555  0.29752603  0.80649594    -0.08200
C1799       C  0.37364489  0.25208294  0.83434097    -0.18500
C1800       C  0.38640731  0.24158705  0.82458238    -0.23300
C1801       C  0.38516000  0.22261321  0.82625611     0.27100
C1802       C  0.39496103  0.21281261  0.80376322    -0.20100
C1803       C  0.39359007  0.19498042  0.80336972    -0.09700
C1804       C  0.38249310  0.18651094  0.82578410    -0.10300
C1805       C  0.37316024  0.19628591  0.84918806    -0.03200
C1806       C  0.37450120  0.21412526  0.84951318    -0.18300
H1807       H  0.35235723  0.30551425  0.86144805     0.10800
H1808       H  0.35320602  0.27442631  0.86630411     0.10800
H1809       H  0.39450850  0.27282817  0.79385230     0.10500
H1810       H  0.39381207  0.30375769  0.78944797     0.11600
H1811       H  0.36208093  0.24661155  0.84492651     0.11700
H1812       H  0.39795648  0.24686809  0.81363682     0.13600
H1813       H  0.40342963  0.21900150  0.78588120     0.10100
H1814       H  0.40109081  0.18785466  0.78520982     0.12200
H1815       H  0.36468140  0.19016740  0.86713538     0.08800
H1816       H  0.36724617  0.22114747  0.86815065     0.11600
C1817       C  0.19335755  0.13068339  0.91405903    -0.03000
C1818       C  0.20518502  0.12305096  0.93612905    -0.05600
C1819       C  0.22276362  0.12386689  0.92941697    -0.20700
C1820       C  0.22885897  0.13197590  0.90016784     0.25000
C1821       C  0.21707605  0.13991674  0.87846477    -0.18300
C1822       C  0.19954442  0.13932123  0.88540145    -0.08200
C1823       C  0.24752885  0.13208282  0.89298241    -0.18500
C1824       C  0.25383324  0.13150420  0.86132717    -0.23300
C1825       C  0.27241421  0.13064987  0.85363707     0.27100
C1826       C  0.27784887  0.12184169  0.82469169    -0.20100
C1827       C  0.29525168  0.12063241  0.81675630    -0.09700
C1828       C  0.30760166  0.12851828  0.83729370    -0.10300
C1829       C  0.30209195  0.13775049  0.86581855    -0.03200
C1830       C  0.28470213  0.13875900  0.87397948    -0.18300
H1831       H  0.20085421  0.11640319  0.95854190     0.10800
H1832       H  0.23160405  0.11780940  0.94671495     0.10800
H1833       H  0.22138219  0.14669887  0.85620996     0.10500
H1834       H  0.19080347  0.14540059  0.86795381     0.11600
H1835       H  0.25623619  0.13136269  0.91427896     0.11700
H1836       H  0.24504464  0.13039368  0.84022685     0.13600
H1837       H  0.26860136  0.11561375  0.80846846     0.10100
H1838       H  0.29902949  0.11345027  0.79461073     0.12200
H1839       H  0.31124338  0.14402824  0.88216619     0.08800
H1840       H  0.28089958  0.14603510  0.89597718     0.11600
C1841       C  0.38191673  0.18773778  0.31901667    -0.03000
C1842       C  0.39341266  0.19621857  0.29743429    -0.05600
C1843       C  0.39352078  0.21406075  0.29532066    -0.20700
C1844       C  0.38223086  0.22391162  0.31481332     0.25000
C1845       C  0.37070900  0.21545355  0.33649471    -0.18300
C1846       C  0.37061445  0.19757430  0.33864373    -0.08200
C1847       C  0.38243168  0.24283418  0.31046201    -0.18500
C1848       C  0.37630033  0.25394144  0.33353935    -0.23300
C1849       C  0.37622527  0.27288773  0.32907611     0.27100
C1850       C  0.36584545  0.28272076  0.35051465    -0.20100
C1851       C  0.36534618  0.30053491  0.34762906    -0.09700
C1852       C  0.37533140  0.30900522  0.32328618    -0.10300
C1853       C  0.38582401  0.29921587  0.30193536    -0.03200
C1854       C  0.38633157  0.28138569  0.30481837    -0.18300
H1855       H  0.40230056  0.18906604  0.28193872     0.10800
H1856       H  0.40245606  0.22019854  0.27829262     0.10800
H1857       H  0.36142181  0.22247790  0.35120415     0.10500
H1858       H  0.36147839  0.19145157  0.35526158     0.11600
H1859       H  0.38798619  0.24758715  0.28727434     0.11700
H1860       H  0.37088564  0.24906224  0.35679805     0.13600
H1861       H  0.35801440  0.27658720  0.36955882     0.10100
H1862       H  0.35717375  0.30766174  0.36460463     0.12200
H1863       H  0.39378240  0.30533892  0.28308703     0.08800
H1864       H  0.39490276  0.27450318  0.28835545     0.11600
C1865       C  0.37183425  0.12311776  0.68834700    -0.03000
C1866       C  0.35725272  0.11789269  0.67034224    -0.05600
C1867       C  0.35737267  0.11756807  0.63507786    -0.20700
C1868       C  0.37214180  0.12211846  0.61708035     0.25000
C1869       C  0.38670662  0.12747389  0.63496192    -0.18300
C1870       C  0.38652841  0.12801750  0.67023310    -0.08200
C1871       C  0.37167626  0.12190685  0.57970408    -0.18500
C1872       C  0.38546185  0.11853896  0.56043924    -0.23300
C1873       C  0.38465940  0.11859474  0.52304119     0.27100
C1874       C  0.39509862  0.10743481  0.50444754    -0.20100
C1875       C  0.39438312  0.10723539  0.46911552    -0.09700
C1876       C  0.38347207  0.11849169  0.45179164    -0.10300
C1877       C  0.37334581  0.12992172  0.47050983    -0.03200
C1878       C  0.37390048  0.12995613  0.50568439    -0.18300
H1879       H  0.34571622  0.11407017  0.68348716     0.10800
H1880       H  0.34594643  0.11356645  0.62179372     0.10800
H1881       H  0.39814046  0.13152078  0.62175665     0.10500
H1882       H  0.39796501  0.13214609  0.68330903     0.11600
H1883       H  0.35932739  0.12378024  0.56772307     0.11700
H1884       H  0.39742559  0.11486120  0.57229580     0.13600
H1885       H  0.40362788  0.09869515  0.51731182     0.10100
H1886       H  0.40242784  0.09836948  0.45538200     0.12200
H1887       H  0.36484689  0.13880828  0.45797433     0.08800
H1888       H  0.36606810  0.13907626  0.51922075     0.11600
C1889       C  0.37502526  0.12227195  0.18868101    -0.03000
C1890       C  0.38930308  0.12860747  0.17101342    -0.05600
C1891       C  0.39045022  0.12689239  0.13602885    -0.20700
C1892       C  0.37731333  0.11898553  0.11771607     0.25000
C1893       C  0.36289868  0.11278469  0.13523450    -0.18300
C1894       C  0.36177194  0.11444219  0.17035588    -0.08200
C1895       C  0.37944707  0.11701455  0.08064898    -0.18500
C1896       C  0.36625822  0.11529605  0.05915415    -0.23300
C1897       C  0.36849965  0.11464625  0.02198916     0.27100
C1898       C  0.35542887  0.12116006  0.00156404    -0.20100
C1899       C  0.35720912  0.12140107  0.96655251    -0.09700
C1900       C  0.37193746  0.11472664  0.95109684    -0.10300
C1901       C  0.38480638  0.10760110  0.97133951    -0.03200
C1902       C  0.38316974  0.10766687  0.00657459    -0.18300
H1903       H  0.39981541  0.13462157  0.18427214     0.10800
H1904       H  0.40170851  0.13172024  0.12321287     0.10800
H1905       H  0.35269516  0.10621071  0.12214916     0.10500
H1906       H  0.35069408  0.10925892  0.18320747     0.11600
H1907       H  0.39231967  0.11814825  0.07056470     0.11700
H1908       H  0.35325942  0.11584108  0.06871319     0.13600
H1909       H  0.34394585  0.12643322  0.01278271     0.10100
H1910       H  0.34699625  0.12679377  0.95147030     0.12200
H1911       H  0.39624831  0.10234135  0.95996979     0.08800
H1912       H  0.39329798  0.10212733  0.02161045     0.11600
C1913       C  0.31293801  0.12396656  0.34932938    -0.03000
C1914       C  0.30883915  0.13144503  0.38061980    -0.05600
C1915       C  0.29212533  0.13099084  0.39301062    -0.20700
C1916       C  0.27901224  0.12332844  0.37426089     0.25000
C1917       C  0.28302873  0.11582259  0.34291692    -0.18300
C1918       C  0.29984278  0.11610869  0.33062853    -0.08200
C1919       C  0.26141901  0.12315018  0.38852423    -0.18500
C1920       C  0.24732158  0.12335717  0.36910705    -0.23300
C1921       C  0.22967560  0.12452373  0.38288296     0.27100
C1922       C  0.21703070  0.13209100  0.36282607    -0.20100
C1923       C  0.20016186  0.13314529  0.37413644    -0.09700
C1924       C  0.19539688  0.12636840  0.40566453    -0.10300
C1925       C  0.20805344  0.11873885  0.42587378    -0.03200
C1926       C  0.22505888  0.11787019  0.41465645    -0.18300
H1927       H  0.31861940  0.13745154  0.39592025     0.10800
H1928       H  0.28940488  0.13676063  0.41728103     0.10800
H1929       H  0.27330739  0.10940446  0.32817736     0.10500
H1930       H  0.30260447  0.11007636  0.30664350     0.11600
H1931       H  0.26010605  0.12423152  0.41572211     0.11700
H1932       H  0.24874158  0.12398936  0.34187380     0.13600
H1933       H  0.22021964  0.13722901  0.33822069     0.10100
H1934       H  0.19076049  0.13897260  0.35771906     0.12200
H1935       H  0.20478131  0.11325597  0.45012769     0.08800
H1936       H  0.23441840  0.11159063  0.43046871     0.11600
C1937       C  0.37581768  0.68708393  0.67504882    -0.03000
C1938       C  0.36700581  0.69534769  0.64876376    -0.05600
C1939       C  0.36733384  0.71317512  0.64587134    -0.20700
C1940       C  0.37631925  0.72321561  0.66926855     0.25000
C1941       C  0.38547886  0.71493113  0.69514876    -0.18300
C1942       C  0.38516196  0.69709328  0.69802958    -0.08200
C1943       C  0.37598180  0.74218159  0.66545871    -0.18500
C1944       C  0.37919634  0.75311133  0.69099838    -0.23300
C1945       C  0.37864350  0.77208247  0.68791040     0.27100
C1946       C  0.38720668  0.78185343  0.71231255    -0.20100
C1947       C  0.38667567  0.79969193  0.71144343    -0.09700
C1948       C  0.37738042  0.80828382  0.68626662    -0.10300
C1949       C  0.36875388  0.79854418  0.66176323    -0.03200
C1950       C  0.36935472  0.78062958  0.66254777    -0.18300
H1951       H  0.35977714  0.68805310  0.63044889     0.10800
H1952       H  0.36032606  0.71917011  0.62546963     0.10800
H1953       H  0.39310812  0.72205870  0.71299717     0.10500
H1954       H  0.39226630  0.69114313  0.71833288     0.11600
H1955       H  0.37257221  0.74717791  0.64083220     0.11700
H1956       H  0.38249652  0.74807398  0.71563931     0.13600
H1957       H  0.39436214  0.77564141  0.73225150     0.10100
H1958       H  0.39343433  0.80674495  0.73081090     0.12200
H1959       H  0.36139347  0.80475848  0.64214232     0.08800
H1960       H  0.36218082  0.77362284  0.64377709     0.11600
C1961       C  0.37157773  0.94148056  0.71152742    -0.03000
C1962       C  0.38501143  0.95225932  0.70124605    -0.05600
C1963       C  0.38614320  0.96906181  0.71339426    -0.20700
C1964       C  0.37379533  0.97555855  0.73574663     0.25000
C1965       C  0.36024260  0.96483824  0.74573110    -0.18300
C1966       C  0.35914228  0.94805708  0.73371077    -0.08200
C1967       C  0.37584705  0.99323541  0.74929583    -0.18500
C1968       C  0.36265219  0.00270287  0.76073940    -0.23300
C1969       C  0.36448132  0.02046161  0.77380895     0.27100
C1970       C  0.35038365  0.03148308  0.77170613    -0.20100
C1971       C  0.35151593  0.04833322  0.78321867    -0.09700
C1972       C  0.36670599  0.05451863  0.79777276    -0.10300
C1973       C  0.38067931  0.04333758  0.80099062    -0.03200
C1974       C  0.37961572  0.02648508  0.78900523    -0.18300
H1975       H  0.39490395  0.94758817  0.68449181     0.10800
H1976       H  0.39678165  0.97698509  0.70547722     0.10800
H1977       H  0.35074062  0.96912327  0.76367037     0.10500
H1978       H  0.34871623  0.94009447  0.74251562     0.11600
H1979       H  0.38853723  0.99885669  0.74834053     0.11700
H1980       H  0.34974528  0.99770473  0.75864031     0.13600
H1981       H  0.33851927  0.02713430  0.76049496     0.10100
H1982       H  0.34048802  0.05658608  0.78046788     0.12200
H1983       H  0.39256567  0.04773788  0.81200325     0.08800
H1984       H  0.39059014  0.01820537  0.79192991     0.11600
C1985       C  0.37201184  0.80983288  0.18209750    -0.03000
C1986       C  0.36183368  0.80147247  0.15792905    -0.05600
C1987       C  0.36128373  0.78365079  0.15637108    -0.20700
C1988       C  0.37105516  0.77369498  0.17853693     0.25000
C1989       C  0.38134468  0.78198330  0.20270348    -0.18300
C1990       C  0.38180567  0.79988355  0.20444614    -0.08200
C1991       C  0.36945458  0.75477694  0.17657299    -0.18500
C1992       C  0.38193072  0.74391359  0.18601388    -0.23300
C1993       C  0.38042798  0.72489938  0.18463660     0.27100
C1994       C  0.39258002  0.71510354  0.20208308    -0.20100
C1995       C  0.39161310  0.69725454  0.20234587    -0.09700
C1996       C  0.37853481  0.68869220  0.18481511    -0.10300
C1997       C  0.36657029  0.69842160  0.16666840    -0.03200
C1998       C  0.36748382  0.71630819  0.16652482    -0.18300
H1999       H  0.35407294  0.80869465  0.14037468     0.10800
H2000       H  0.35317161  0.77759988  0.13770124     0.10800
H2001       H  0.38868107  0.77473172  0.22086735     0.10500
H2002       H  0.38967686  0.80591439  0.22351954     0.11600
H2003       H  0.35758401  0.74986466  0.16637727     0.11700
H2004       H  0.39382686  0.74912637  0.19567977     0.13600
H2005       H  0.40279435  0.72129578  0.21593626     0.10100
H2006       H  0.40117127  0.69015649  0.21627033     0.12200
H2007       H  0.35641710  0.69221369  0.15268720     0.08800
H2008       H  0.35810106  0.72317376  0.15186330     0.11600
C2009       C  0.37123815  0.88256427  0.05752215    -0.03000
C2010       C  0.37621735  0.89759158  0.04068497    -0.05600
C2011       C  0.37562752  0.89847216  0.00538478    -0.20700
C2012       C  0.37033299  0.88428798  0.98632491     0.25000
C2013       C  0.36525308  0.86932194  0.00322079    -0.18300
C2014       C  0.36572721  0.86847569  0.03833331    -0.08200
C2015       C  0.36965559  0.88550676  0.94898122    -0.18500
C2016       C  0.37191987  0.87178202  0.92897634    -0.23300
C2017       C  0.37106231  0.87244382  0.89166994     0.27100
C2018       C  0.38037118  0.86037402  0.87309014    -0.20100
C2019       C  0.37978568  0.86035593  0.83791672    -0.09700
C2020       C  0.36959892  0.87223669  0.82052601    -0.10300
C2021       C  0.35991762  0.88408473  0.83912913    -0.03200
C2022       C  0.36067946  0.88423520  0.87441463    -0.18300
H2023       H  0.38036687  0.90871021  0.05476883     0.10800
H2024       H  0.37942265  0.91020601  0.99291453     0.10800
H2025       H  0.36054617  0.85833242  0.98946311     0.10500
H2026       H  0.36166686  0.85673878  0.05045219     0.11600
H2027       H  0.36797248  0.89807015  0.93779468     0.11700
H2028       H  0.37538861  0.85960966  0.94024312     0.13600
H2029       H  0.38829921  0.85104162  0.88584633     0.10100
H2030       H  0.38734359  0.85101429  0.82432953     0.12200
H2031       H  0.35195976  0.89339718  0.82641414     0.08800
H2032       H  0.35295973  0.89339745  0.88807149     0.11600
C2033       C  0.36387745  0.87345260  0.32001429    -0.03000
C2034       C  0.34884096  0.87782850  0.33742711    -0.05600
C2035       C  0.34857537  0.87819896  0.37273187    -0.20700
C2036       C  0.36338676  0.87454319  0.39138058     0.25000
C2037       C  0.37838226  0.86995393  0.37399345    -0.18300
C2038       C  0.37860240  0.86939573  0.33872897    -0.08200
C2039       C  0.36258153  0.87507896  0.42884985    -0.18500
C2040       C  0.37627546  0.87834670  0.44850509    -0.23300
C2041       C  0.37549926  0.87881282  0.48601428     0.27100
C2042       C  0.38787007  0.88820682  0.50387157    -0.20100
C2043       C  0.38782667  0.88852372  0.53922709    -0.09700
C2044       C  0.37558533  0.87915123  0.55743363    -0.10300
C2045       C  0.36323258  0.86971559  0.53953773    -0.03200
C2046       C  0.36317288  0.86953610  0.50429414    -0.18300
H2047       H  0.33726226  0.88094763  0.32377768     0.10800
H2048       H  0.33680797  0.88157553  0.38553217     0.10800
H2049       H  0.38990339  0.86653604  0.38749806     0.10500
H2050       H  0.39039533  0.86595243  0.32610946     0.11600
H2051       H  0.35007563  0.87358773  0.44038143     0.11700
H2052       H  0.38841960  0.88152177  0.43676854     0.13600
H2053       H  0.39760253  0.89533397  0.49040207     0.10100
H2054       H  0.39756460  0.89581509  0.55229297     0.12200
H2055       H  0.35361246  0.86234358  0.55281077     0.08800
H2056       H  0.35372606  0.86174478  0.49159154     0.11600
C2057       C  0.37336823  0.05482092  0.29863310    -0.03000
C2058       C  0.38600242  0.04343442  0.31010825    -0.05600
C2059       C  0.38662313  0.02661091  0.29797410    -0.20700
C2060       C  0.37454873  0.02074531  0.27441433     0.25000
C2061       C  0.36177808  0.03208183  0.26330678    -0.18300
C2062       C  0.36116522  0.04885147  0.27537397    -0.08200
C2063       C  0.37602130  0.00302952  0.26090658    -0.18500
C2064       C  0.36262545  0.99435510  0.24804299    -0.23300
C2065       C  0.36372684  0.97653656  0.23524576     0.27100
C2066       C  0.34902144  0.96628635  0.23659266    -0.20100
C2067       C  0.34943174  0.94936778  0.22540325    -0.09700
C2068       C  0.36450492  0.94237528  0.21190968    -0.10300
C2069       C  0.37911797  0.95280035  0.20940198    -0.03200
C2070       C  0.37877046  0.96971774  0.22110234    -0.18300
H2071       H  0.39569409  0.04763884  0.32778078     0.10800
H2072       H  0.39665002  0.01819197  0.30680595     0.10800
H2073       H  0.35253946  0.02829776  0.24442981     0.10500
H2074       H  0.35135878  0.05728634  0.26569458     0.11600
H2075       H  0.38832471  0.99670835  0.26310067     0.11700
H2076       H  0.34998245  0.00003813  0.24890995     0.13600
H2077       H  0.33722506  0.97129258  0.24698997     0.10100
H2078       H  0.33793053  0.94171120  0.22751924     0.12200
H2079       H  0.39092253  0.94776257  0.19912937     0.08800
H2080       H  0.39021082  0.97742847  0.21880145     0.11600
C2081       C  0.12618060  0.81354650  0.56582285    -0.03000
C2082       C  0.13402997  0.80502583  0.59293503    -0.05600
C2083       C  0.13414298  0.78718033  0.59444812    -0.20700
C2084       C  0.12637628  0.77738155  0.56904994     0.25000
C2085       C  0.11858281  0.78589020  0.54176347    -0.18300
C2086       C  0.11843902  0.80377149  0.54028130    -0.08200
C2087       C  0.12740259  0.75841426  0.57141871    -0.18500
C2088       C  0.11696065  0.74761917  0.55469201    -0.23300
C2089       C  0.11837200  0.72865098  0.55646325     0.27100
C2090       C  0.11095428  0.71886207  0.53063347    -0.20100
C2091       C  0.11201660  0.70101777  0.53098942    -0.09700
C2092       C  0.12047189  0.69250655  0.55739035    -0.10300
C2093       C  0.12767977  0.70227111  0.58355508    -0.03200
C2094       C  0.12658818  0.72012237  0.58323569    -0.18300
H2095       H  0.14014009  0.81214142  0.61304462     0.10800
H2096       H  0.14034219  0.78099181  0.61561996     0.10800
H2097       H  0.11292686  0.77889301  0.52106113     0.10500
H2098       H  0.11245047  0.80993365  0.51886459     0.11600
H2099       H  0.13725918  0.75329645  0.58775301     0.11700
H2100       H  0.10710894  0.75273768  0.53832972     0.13600
H2101       H  0.10442580  0.72506331  0.50985512     0.10100
H2102       H  0.10625743  0.69390748  0.51049828     0.12200
H2103       H  0.13410209  0.69611289  0.60449797     0.08800
H2104       H  0.13196091  0.72704880  0.60428531     0.11600
C2105       C  0.13422697  0.05814901  0.45252071    -0.03000
C2106       C  0.12226865  0.04652860  0.43927802    -0.05600
C2107       C  0.12161266  0.02968146  0.45109571    -0.20700
C2108       C  0.13296378  0.02401394  0.47614702     0.25000
C2109       C  0.14520351  0.03552927  0.48885556    -0.18300
C2110       C  0.14584943  0.05236404  0.47708438    -0.08200
C2111       C  0.13101787  0.00636142  0.48961266    -0.18500
C2112       C  0.14363248  0.99778093  0.50535355    -0.23300
C2113       C  0.14152307  0.98002266  0.51794565     0.27100
C2114       C  0.15575068  0.96912829  0.51812901    -0.20100
C2115       C  0.15411240  0.95211266  0.52841171    -0.09700
C2116       C  0.13826789  0.94574100  0.53954109    -0.10300
C2117       C  0.12417350  0.95685586  0.54083533    -0.03200
C2118       C  0.12575181  0.97382290  0.52998742    -0.18300
H2119       H  0.11309067  0.05056039  0.42044648     0.10800
H2120       H  0.11203165  0.02109662  0.44094703     0.10800
H2121       H  0.15390608  0.03184758  0.50875457     0.10500
H2122       H  0.15515670  0.06099094  0.48804002     0.11600
H2123       H  0.11890282  0.99995119  0.48510962     0.11700
H2124       H  0.15630173  0.00338755  0.50704804     0.13600
H2125       H  0.16807834  0.97367063  0.50939065     0.10100
H2126       H  0.16522843  0.94387910  0.52734091     0.12200
H2127       H  0.11180513  0.95229980  0.54928925     0.08800
H2128       H  0.11464498  0.98204890  0.53112563     0.11600
C2129       C  0.19558490  0.87207961  0.57729817    -0.03000
C2130       C  0.20831830  0.87713462  0.55430495    -0.05600
C2131       C  0.22564748  0.87605267  0.56310525    -0.20700
C2132       C  0.23055417  0.87020751  0.59520238     0.25000
C2133       C  0.21784268  0.86457529  0.61768512    -0.18300
C2134       C  0.20060071  0.86550431  0.60883319    -0.08200
C2135       C  0.24897018  0.86992832  0.60446455    -0.18500
C2136       C  0.25447406  0.87162723  0.63657416    -0.23300
C2137       C  0.27282455  0.87160200  0.64636213     0.27100
C2138       C  0.27776594  0.87957975  0.67661448    -0.20100
C2139       C  0.29494396  0.87983306  0.68660666    -0.09700
C2140       C  0.30749719  0.87184490  0.66674750    -0.10300
C2141       C  0.30245449  0.86350653  0.63688575    -0.03200
C2142       C  0.28535075  0.86337467  0.62680011    -0.18300
H2143       H  0.20489412  0.88208461  0.52970518     0.10800
H2144       H  0.23523106  0.88019266  0.54511042     0.10800
H2145       H  0.22114718  0.85936866  0.64211909     0.10500
H2146       H  0.19116435  0.86132482  0.62708352     0.11600
H2147       H  0.25818797  0.86932348  0.58401199     0.11700
H2148       H  0.24522739  0.87398802  0.65648442     0.13600
H2149       H  0.26832469  0.88583341  0.69235877     0.10100
H2150       H  0.29838966  0.88630225  0.70978980     0.12200
H2151       H  0.31177594  0.85717888  0.62098858     0.08800
H2152       H  0.28200904  0.85660837  0.60393083     0.11600
C2153       C  0.12353511  0.69237164  0.05599912    -0.03000
C2154       C  0.11438984  0.70063305  0.03019072    -0.05600
C2155       C  0.11292202  0.71844630  0.02975646    -0.20700
C2156       C  0.12038070  0.72846777  0.05519597     0.25000
C2157       C  0.12958832  0.72021536  0.08103946    -0.18300
C2158       C  0.13110981  0.70237782  0.08140555    -0.08200
C2159       C  0.11885602  0.74742295  0.05281333    -0.18500
C2160       C  0.12137528  0.75821864  0.07890112    -0.23300
C2161       C  0.12051036  0.77719003  0.07583758     0.27100
C2162       C  0.12898604  0.78722563  0.09999035    -0.20100
C2163       C  0.12892901  0.80507518  0.09772764    -0.09700
C2164       C  0.12021751  0.81334930  0.07136240    -0.10300
C2165       C  0.11132047  0.80333269  0.04768257    -0.03200
C2166       C  0.11141698  0.78547465  0.04989980    -0.18300
H2167       H  0.10842186  0.69334991  0.01017280     0.10800
H2168       H  0.10587649  0.72443631  0.00939580     0.10800
H2169       H  0.13597665  0.72738593  0.10061746     0.10500
H2170       H  0.13828874  0.69642737  0.10160922     0.11600
H2171       H  0.11558229  0.75256276  0.02823999     0.11700
H2172       H  0.12470838  0.75313513  0.10347812     0.13600
H2173       H  0.13593512  0.78121472  0.12044121     0.10100
H2174       H  0.13581940  0.81238086  0.11653913     0.12200
H2175       H  0.10433539  0.80928665  0.02723155     0.08800
H2176       H  0.10419013  0.77831360  0.03143573     0.11600
C2177       C  0.12638461  0.88594309  0.69148847    -0.03000
C2178       C  0.11918531  0.90003076  0.70837449    -0.05600
C2179       C  0.11869196  0.90050564  0.74373940    -0.20700
C2180       C  0.12512049  0.88681869  0.76283662     0.25000
C2181       C  0.13242896  0.87282302  0.74595048    -0.18300
C2182       C  0.13304532  0.87239803  0.71077586    -0.08200
C2183       C  0.12491111  0.88771985  0.80026898    -0.18500
C2184       C  0.12380579  0.87366245  0.81982543    -0.23300
C2185       C  0.12472480  0.87417526  0.85719110     0.27100
C2186       C  0.11624341  0.86152659  0.87595272    -0.20100
C2187       C  0.11705995  0.86150157  0.91119948    -0.09700
C2188       C  0.12673851  0.87390534  0.92834561    -0.10300
C2189       C  0.13566529  0.88625915  0.90950340    -0.03200
C2190       C  0.13460070  0.88645884  0.87428317    -0.18300
H2191       H  0.11401236  0.91070431  0.69430169     0.10800
H2192       H  0.11317888  0.91152534  0.75621703     0.10800
H2193       H  0.13803342  0.86231897  0.75984494     0.10500
H2194       H  0.13882219  0.86140443  0.69870380     0.11600
H2195       H  0.12527375  0.90028678  0.81192347     0.11700
H2196       H  0.12162749  0.86128815  0.80813179     0.13600
H2197       H  0.10875918  0.85178475  0.86330206     0.10100
H2198       H  0.11009318  0.85178945  0.92504675     0.12200
H2199       H  0.14318796  0.89600999  0.92202370     0.08800
H2200       H  0.14171174  0.89607390  0.86050152     0.11600
C2201       C  0.12518183  0.88904037  0.18989267    -0.03000
C2202       C  0.14022630  0.88297655  0.20511842    -0.05600
C2203       C  0.14230334  0.88360137  0.24001236    -0.20700
C2204       C  0.12927151  0.88994455  0.26076781     0.25000
C2205       C  0.11431081  0.89646565  0.24565475    -0.18300
C2206       C  0.11235511  0.89614530  0.21038677    -0.08200
C2207       C  0.13200922  0.88954398  0.29788391    -0.18500
C2208       C  0.11928898  0.88768424  0.32051690    -0.23300
C2209       C  0.12238138  0.88541983  0.35738186     0.27100
C2210       C  0.10995333  0.87704764  0.37690162    -0.20100
C2211       C  0.11234116  0.87461726  0.41156423    -0.09700
C2212       C  0.12719100  0.88066107  0.42771252    -0.10300
C2213       C  0.13960721  0.88915234  0.40821697    -0.03200
C2214       C  0.13723290  0.89154326  0.37350036    -0.18300
H2215       H  0.15045020  0.87765236  0.18994834     0.10800
H2216       H  0.15401997  0.87869576  0.25091899     0.10800
H2217       H  0.10419546  0.90186350  0.26094620     0.10500
H2218       H  0.10068165  0.90099359  0.19924872     0.11600
H2219       H  0.14517436  0.88910325  0.30648772     0.11700
H2220       H  0.10622200  0.88646979  0.31154082     0.13600
H2221       H  0.09835616  0.87229198  0.36525260     0.10100
H2222       H  0.10240972  0.86817824  0.42578100     0.12200
H2223       H  0.15107471  0.89419598  0.41986258     0.08800
H2224       H  0.14689894  0.89852187  0.35964424     0.11600
C2225       C  0.12431515  0.94465292  0.02554382    -0.03000
C2226       C  0.13155327  0.94795943  0.99365253    -0.05600
C2227       C  0.13064132  0.96420501  0.97925697    -0.20700
C2228       C  0.12284194  0.97768254  0.99662533     0.25000
C2229       C  0.11556909  0.97451155  0.02857383    -0.18300
C2230       C  0.11618112  0.95807970  0.04279318    -0.08200
C2231       C  0.12243164  0.99479284  0.98044058    -0.18500
C2232       C  0.12408013  0.00933196  0.99818269    -0.23300
C2233       C  0.12560394  0.02644299  0.98221712     0.27100
C2234       C  0.13512072  0.03900557  0.99896735    -0.20100
C2235       C  0.13652259  0.05544784  0.98567544    -0.09700
C2236       C  0.12813353  0.05989259  0.95552125    -0.10300
C2237       C  0.11861486  0.04730132  0.93852040    -0.03200
C2238       C  0.11744353  0.03066586  0.95163829    -0.18300
H2239       H  0.13770783  0.93787106  0.97940226     0.10800
H2240       H  0.13624540  0.96630412  0.95458527     0.10800
H2241       H  0.10915371  0.98462121  0.04227570     0.10500
H2242       H  0.11035747  0.95589210  0.06721535     0.11600
H2243       H  0.12246747  0.99531909  0.95305001     0.11700
H2244       H  0.12582597  0.00857315  0.02534274     0.13600
H2245       H  0.14148517  0.03609465  0.02255240     0.10100
H2246       H  0.14382895  0.06483670  0.99968081     0.12200
H2247       H  0.11191557  0.05036104  0.91539423     0.08800
H2248       H  0.10974212  0.02132380  0.93839818     0.11600
C2249       C  0.18965403  0.87818444  0.08105219    -0.03000
C2250       C  0.20065927  0.89142733  0.07079074    -0.05600
C2251       C  0.21743500  0.89229444  0.08312768    -0.20700
C2252       C  0.22364173  0.87981482  0.10548026     0.25000
C2253       C  0.21270866  0.86640854  0.11525631    -0.18300
C2254       C  0.19595458  0.86560946  0.10315984    -0.08200
C2255       C  0.24126749  0.88147925  0.11926760    -0.18500
C2256       C  0.25055574  0.86794348  0.12953248    -0.23300
C2257       C  0.26834571  0.86939200  0.14228308     0.27100
C2258       C  0.27972388  0.85590352  0.13616086    -0.20100
C2259       C  0.29668928  0.85688695  0.14699119    -0.09700
C2260       C  0.30257123  0.87123127  0.16496940    -0.10300
C2261       C  0.29100630  0.88447429  0.17231657    -0.03200
C2262       C  0.27406045  0.88362507  0.16088289    -0.18300
H2263       H  0.19614892  0.90141565  0.05410774     0.10800
H2264       H  0.22555990  0.90281385  0.07537429     0.10800
H2265       H  0.21682128  0.85680953  0.13313813     0.10500
H2266       H  0.18779116  0.85530212  0.11180367     0.11600
H2267       H  0.24705148  0.89411509  0.11937605     0.11700
H2268       H  0.24547162  0.85513116  0.12621304     0.13600
H2269       H  0.27556899  0.84472103  0.12224886     0.10100
H2270       H  0.30525237  0.84642159  0.14111137     0.12200
H2271       H  0.29517188  0.89567511  0.18613002     0.08800
H2272       H  0.26544635  0.89403153  0.16679091     0.11600
C2273       C  0.56171109  0.11757753  0.79994193    -0.03000
C2274       C  0.55217255  0.12614667  0.77514553    -0.05600
C2275       C  0.53434773  0.12495791  0.77459380    -0.20700
C2276       C  0.52551238  0.11535558  0.79897394     0.25000
C2277       C  0.53505299  0.10657232  0.82365027    -0.18300
C2278       C  0.55295281  0.10767255  0.82405638    -0.08200
C2279       C  0.50645500  0.11499490  0.79726590    -0.18500
C2280       C  0.49605428  0.10980832  0.82248924    -0.23300
C2281       C  0.47702707  0.11089929  0.82067857     0.27100
C2282       C  0.46708808  0.10037830  0.84173019    -0.20100
C2283       C  0.44919491  0.10143729  0.84146815    -0.09700
C2284       C  0.44082271  0.11318741  0.82030502    -0.10300
C2285       C  0.45078984  0.12381336  0.79945527    -0.03200
C2286       C  0.46863043  0.12274867  0.79970678    -0.18300
H2287       H  0.55848068  0.13379640  0.75604855     0.10800
H2288       H  0.52740098  0.13177943  0.75515899     0.10800
H2289       H  0.52889202  0.09871342  0.84250411     0.10500
H2290       H  0.55992633  0.10086322  0.84345303     0.11600
H2291       H  0.50079233  0.11971032  0.77409151     0.11700
H2292       H  0.50146019  0.10466063  0.84551308     0.13600
H2293       H  0.47319670  0.09127695  0.85842386     0.10100
H2294       H  0.44193635  0.09310972  0.85797237     0.12200
H2295       H  0.44481454  0.13313598  0.78306713     0.08800
H2296       H  0.47571963  0.13157380  0.78402267     0.11600
C2297       C  0.62012689  0.19147466  0.81168636    -0.03000
C2298       C  0.60900556  0.19996845  0.78941942    -0.05600
C2299       C  0.60681374  0.21769243  0.79129892    -0.20700
C2300       C  0.61577925  0.22744683  0.81518924     0.25000
C2301       C  0.62677456  0.21895176  0.83781029    -0.18300
C2302       C  0.62893777  0.20118505  0.83599228    -0.08200
C2303       C  0.61293585  0.24630664  0.81610090    -0.18500
C2304       C  0.62435122  0.25753358  0.82881804    -0.23300
C2305       C  0.62198442  0.27648667  0.82944150     0.27100
C2306       C  0.63294165  0.28621386  0.84991171    -0.20100
C2307       C  0.63178599  0.30404221  0.85078922    -0.09700
C2308       C  0.61971302  0.31271806  0.83087799    -0.10300
C2309       C  0.60864228  0.30303954  0.81042497    -0.03200
C2310       C  0.60973884  0.28513329  0.80966824    -0.18300
H2311       H  0.60193976  0.19292179  0.77047890     0.10800
H2312       H  0.59815751  0.22384245  0.77375738     0.10800
H2313       H  0.63350122  0.22586125  0.85735578     0.10500
H2314       H  0.63746355  0.19504708  0.85378307     0.11600
H2315       H  0.60115326  0.25094698  0.80505087     0.11700
H2316       H  0.63620200  0.25271553  0.83936017     0.13600
H2317       H  0.64255539  0.27998279  0.86527286     0.10100
H2318       H  0.64060488  0.31104398  0.86668017     0.12200
H2319       H  0.59925279  0.30931695  0.79462172     0.08800
H2320       H  0.60125487  0.27829784  0.79293720     0.11600
C2321       C  0.44428930  0.11423486  0.31508349    -0.03000
C2322       C  0.45275435  0.10232820  0.33571949    -0.05600
C2323       C  0.47051168  0.10060144  0.33412339    -0.20700
C2324       C  0.48018781  0.11077682  0.31207748     0.25000
C2325       C  0.47167988  0.12247520  0.29094844    -0.18300
C2326       C  0.45394593  0.12424111  0.29261912    -0.08200
C2327       C  0.49903749  0.10860981  0.31145185    -0.18500
C2328       C  0.50977255  0.12099383  0.30101822    -0.23300
C2329       C  0.52867167  0.11939016  0.30063234     0.27100
C2330       C  0.53798940  0.13102687  0.28096436    -0.20100
C2331       C  0.55580093  0.13066238  0.28064814    -0.09700
C2332       C  0.56477258  0.11868479  0.30024899    -0.10300
C2333       C  0.55548880  0.10693964  0.31989467    -0.03200
C2334       C  0.53760247  0.10728342  0.32016108    -0.18300
H2335       H  0.44567770  0.09434885  0.35316602     0.10800
H2336       H  0.47673446  0.09139008  0.35041728     0.10800
H2337       H  0.47853619  0.13008708  0.27262888     0.10500
H2338       H  0.44779187  0.13335559  0.27602149     0.11600
H2339       H  0.50406690  0.09657606  0.32063947     0.11700
H2340       H  0.50460624  0.13306584  0.29230080     0.13600
H2341       H  0.53145181  0.14052960  0.26583785     0.10100
H2342       H  0.56252952  0.13993943  0.26528915     0.12200
H2343       H  0.56203748  0.09761847  0.33541592     0.08800
H2344       H  0.53097326  0.09836329  0.33637425     0.11600
C2345       C  0.62183941  0.31043483  0.32761866    -0.03000
C2346       C  0.62878885  0.30128996  0.35486593    -0.05600
C2347       C  0.62925825  0.28342395  0.35448850    -0.20700
C2348       C  0.62288454  0.27412802  0.32687998     0.25000
C2349       C  0.61560253  0.28327845  0.29977136    -0.18300
C2350       C  0.61504908  0.30120710  0.30025831    -0.08200
C2351       C  0.62463461  0.25508051  0.32757144    -0.18500
C2352       C  0.61910778  0.24434016  0.30322778    -0.23300
C2353       C  0.62146597  0.22540145  0.30446910     0.27100
C2354       C  0.61079999  0.21505530  0.28459343    -0.20100
C2355       C  0.61266105  0.19726714  0.28447758    -0.09700
C2356       C  0.62531591  0.18931744  0.30420875    -0.10300
C2357       C  0.63613503  0.19964559  0.32388910    -0.03200
C2358       C  0.63432466  0.21747971  0.32387921    -0.18300
H2359       H  0.63405228  0.30794368  0.37646009     0.10800
H2360       H  0.63488486  0.27683285  0.37580761     0.10800
H2361       H  0.61050719  0.27685479  0.27786970     0.10500
H2362       H  0.60960829  0.30785318  0.27883091     0.11600
H2363       H  0.63075623  0.24969985  0.34969796     0.11700
H2364       H  0.61214521  0.24932639  0.28177934     0.13600
H2365       H  0.60088874  0.22075824  0.26918014     0.10100
H2366       H  0.60407773  0.18973004  0.26902637     0.12200
H2367       H  0.64613661  0.19395717  0.33907037     0.08800
H2368       H  0.64324117  0.22493715  0.33863683     0.11600
C2369       C  0.62705314  0.11933391  0.43517137    -0.03000
C2370       C  0.62250831  0.10444909  0.45296357    -0.05600
C2371       C  0.62327604  0.10408738  0.48830188    -0.20700
C2372       C  0.62835469  0.11863203  0.50656503     0.25000
C2373       C  0.63262193  0.13358898  0.48872488    -0.18300
C2374       C  0.63193646  0.13392741  0.45353744    -0.08200
C2375       C  0.62991300  0.11760669  0.54394496    -0.18500
C2376       C  0.62876757  0.13141506  0.56415252    -0.23300
C2377       C  0.63025229  0.13057887  0.60144256     0.27100
C2378       C  0.62124092  0.14253882  0.62086117    -0.20100
C2379       C  0.62205152  0.14211544  0.65603331    -0.09700
C2380       C  0.63221710  0.12993170  0.67263616    -0.10300
C2381       C  0.64179010  0.11832781  0.65319255    -0.03200
C2382       C  0.64075057  0.11857996  0.61788154    -0.18300
H2383       H  0.61874954  0.09297317  0.43958569     0.10800
H2384       H  0.62000460  0.09237710  0.50141428     0.10800
H2385       H  0.63705548  0.14492537  0.50167767     0.10500
H2386       H  0.63555421  0.14560691  0.44068508     0.11600
H2387       H  0.63141144  0.10502761  0.55517490     0.11700
H2388       H  0.62552776  0.14373808  0.55331909     0.13600
H2389       H  0.61325686  0.15204649  0.60876963     0.10100
H2390       H  0.61462591  0.15131571  0.67026649     0.12200
H2391       H  0.64976674  0.10881811  0.66527643     0.08800
H2392       H  0.64825521  0.10950159  0.60354171     0.11600
C2393       C  0.63594985  0.12420531  0.17195948    -0.03000
C2394       C  0.65133882  0.12088602  0.15487023    -0.05600
C2395       C  0.65178243  0.12047813  0.11960477    -0.20700
C2396       C  0.63680980  0.12298951  0.10076752     0.25000
C2397       C  0.62142804  0.12645673  0.11781341    -0.18300
C2398       C  0.62102377  0.12709896  0.15303346    -0.08200
C2399       C  0.63778676  0.12266910  0.06342228    -0.18500
C2400       C  0.62456698  0.11797730  0.04369951    -0.23300
C2401       C  0.62538652  0.11832990  0.00630047     0.27100
C2402       C  0.61476535  0.10738905  0.98756250    -0.20100
C2403       C  0.61496002  0.10779724  0.95223708    -0.09700
C2404       C  0.62558526  0.11939741  0.93506073    -0.10300
C2405       C  0.63607529  0.13044990  0.95390286    -0.03200
C2406       C  0.63598154  0.12994008  0.98906705    -0.18300
H2407       H  0.66306080  0.11870043  0.16874819     0.10800
H2408       H  0.66382223  0.11800324  0.10698712     0.10800
H2409       H  0.60975348  0.12897546  0.10403611     0.10500
H2410       H  0.60896385  0.12970709  0.16545524     0.11600
H2411       H  0.65003410  0.12574004  0.05199108     0.11700
H2412       H  0.61290559  0.11319207  0.05524233     0.13600
H2413       H  0.60634635  0.09846948  0.00030333     0.10100
H2414       H  0.60665525  0.09920315  0.93841435     0.12200
H2415       H  0.64437900  0.13958353  0.94147013     0.08800
H2416       H  0.64392839  0.13895680  0.00260385     0.11600
C2417       C  0.05922955  0.12081894  0.93368327    -0.03000
C2418       C  0.05063003  0.12927318  0.95999636    -0.05600
C2419       C  0.03283585  0.12864419  0.96251736    -0.20700
C2420       C  0.02299441  0.11968250  0.93875521     0.25000
C2421       C  0.03154078  0.11114148  0.91229490    -0.18300
C2422       C  0.04947366  0.11169135  0.90988013    -0.08200
C2423       C  0.00401398  0.11972216  0.94328281    -0.18500
C2424       C  0.99249254  0.11393860  0.92062785    -0.23300
C2425       C  0.97360738  0.11506953  0.92603669     0.27100
C2426       C  0.96276287  0.10387622  0.90839930    -0.20100
C2427       C  0.94496610  0.10482481  0.91221038    -0.09700
C2428       C  0.93754865  0.11711341  0.93362720    -0.10300
C2429       C  0.94839476  0.12838637  0.95113394    -0.03200
C2430       C  0.96616258  0.12745544  0.94728508    -0.18300
H2431       H  0.05766059  0.13635342  0.97894090     0.10800
H2432       H  0.02671260  0.13531285  0.98322368     0.10800
H2433       H  0.02459054  0.10389192  0.89358854     0.10500
H2434       H  0.05569116  0.10499747  0.88933976     0.11600
H2435       H  0.99935246  0.12501901  0.96685239     0.11700
H2436       H  0.99681540  0.10801706  0.89742381     0.13600
H2437       H  0.96808787  0.09432385  0.89161891     0.10100
H2438       H  0.93701924  0.09597920  0.89820233     0.12200
H2439       H  0.94314752  0.13815706  0.96750013     0.08800
H2440       H  0.97391334  0.13677753  0.96039765     0.11600
C2441       C  0.87913954  0.19067157  0.93921695    -0.03000
C2442       C  0.89197579  0.19862866  0.95849038    -0.05600
C2443       C  0.89371442  0.21642762  0.95851954    -0.20700
C2444       C  0.88276506  0.22670912  0.93918024     0.25000
C2445       C  0.86992550  0.21875361  0.91980563    -0.18300
C2446       C  0.86819764  0.20094609  0.91974196    -0.08200
C2447       C  0.88445643  0.24563275  0.94161178    -0.18500
C2448       C  0.87857190  0.25651798  0.91793641    -0.23300
C2449       C  0.87886028  0.27549735  0.92123749     0.27100
C2450       C  0.86820605  0.28509804  0.89997758    -0.20100
C2451       C  0.86757006  0.30290259  0.90246919    -0.09700
C2452       C  0.87767945  0.31161216  0.92623576    -0.10300
C2453       C  0.88859154  0.30207056  0.94718340    -0.03200
C2454       C  0.88924290  0.28422366  0.94466578    -0.18300
H2455       H  0.90064402  0.19111308  0.97376383     0.10800
H2456       H  0.90362136  0.22220322  0.97386473     0.10800
H2457       H  0.86083107  0.22617278  0.90542456     0.10500
H2458       H  0.85808504  0.19524928  0.90483560     0.11600
H2459       H  0.89059952  0.25057501  0.96409206     0.11700
H2460       H  0.87269160  0.25138273  0.89531369     0.13600
H2461       H  0.86014043  0.27877287  0.88158108     0.10100
H2462       H  0.85905236  0.30982831  0.88583784     0.12200
H2463       H  0.89667526  0.30839275  0.96553110     0.08800
H2464       H  0.89802534  0.27747014  0.96091937     0.11600
C2465       C  0.80445378  0.13113110  0.92535666    -0.03000
C2466       C  0.79169023  0.12349585  0.94532366    -0.05600
C2467       C  0.77448993  0.12410087  0.93530583    -0.20700
C2468       C  0.76978394  0.13199010  0.90482522     0.25000
C2469       C  0.78248512  0.13998381  0.88533754    -0.18300
C2470       C  0.79956676  0.13959002  0.89550806    -0.08200
C2471       C  0.75155686  0.13204730  0.89416332    -0.18500
C2472       C  0.74677518  0.13178573  0.86144286    -0.23300
C2473       C  0.72861412  0.13179236  0.85040295     0.27100
C2474       C  0.72414777  0.12383536  0.81986440    -0.20100
C2475       C  0.70710323  0.12349026  0.80897908    -0.09700
C2476       C  0.69421434  0.13140536  0.82815202    -0.10300
C2477       C  0.69883518  0.13985992  0.85817547    -0.03200
C2478       C  0.71580759  0.14002445  0.86920932    -0.18300
H2479       H  0.79500567  0.11693805  0.96847825     0.10800
H2480       H  0.76488348  0.11804712  0.95098607     0.10800
H2481       H  0.77925364  0.14666083  0.86227954     0.10500
H2482       H  0.80901254  0.14566575  0.87949223     0.11600
H2483       H  0.74187816  0.13137127  0.91378243     0.11700
H2484       H  0.75648279  0.13063221  0.84196368     0.13600
H2485       H  0.73383362  0.11758692  0.80470974     0.10100
H2486       H  0.70400794  0.11690417  0.78572830     0.12200
H2487       H  0.68927585  0.14615921  0.87354443     0.08800
H2488       H  0.71887940  0.14674779  0.89230139     0.11600
C2489       C  0.06254566  0.11896730  0.42827442    -0.03000
C2490       C  0.05418780  0.10688052  0.40780693    -0.05600
C2491       C  0.03632385  0.10583647  0.40743515    -0.20700
C2492       C  0.02637742  0.11688567  0.42729012     0.25000
C2493       C  0.03475199  0.12887877  0.44803640    -0.18300
C2494       C  0.05259772  0.12994119  0.44837052    -0.08200
C2495       C  0.00742286  0.11501603  0.42666811    -0.18500
C2496       C  0.99655603  0.12746963  0.43631230    -0.23300
C2497       C  0.97762920  0.12554635  0.43715718     0.27100
C2498       C  0.96819393  0.13673188  0.45763362    -0.20100
C2499       C  0.95038930  0.13561099  0.45924758    -0.09700
C2500       C  0.94152356  0.12332198  0.44014803    -0.10300
C2501       C  0.95093008  0.11217286  0.41940065    -0.03200
C2502       C  0.96878506  0.11328709  0.41781666    -0.18300
H2503       H  0.06144196  0.09818300  0.39208935     0.10800
H2504       H  0.03023958  0.09637089  0.39147229     0.10800
H2505       H  0.02769243  0.13723501  0.46470054     0.10500
H2506       H  0.05860484  0.13927249  0.46472349     0.11600
H2507       H  0.00239330  0.10286975  0.41792958     0.11700
H2508       H  0.00162596  0.13964205  0.44480595     0.13600
H2509       H  0.97464566  0.14635622  0.47264166     0.10100
H2510       H  0.94357570  0.14444769  0.47542633     0.12200
H2511       H  0.94448840  0.10267628  0.40409499     0.08800
H2512       H  0.97548018  0.10474865  0.40092324     0.11600
C2513       C  0.87415244  0.18930189  0.43693234    -0.03000
C2514       C  0.86369739  0.19753705  0.41310462    -0.05600
C2515       C  0.86303988  0.21537398  0.41156372    -0.20700
C2516       C  0.87271459  0.22542410  0.43384393     0.25000
C2517       C  0.88324998  0.21718927  0.45763558    -0.18300
C2518       C  0.88388745  0.19933629  0.45920969    -0.08200
C2519       C  0.87202197  0.24435050  0.43028232    -0.18500
C2520       C  0.87674236  0.25536214  0.45475698    -0.23300
C2521       C  0.87666490  0.27428429  0.45074744     0.27100
C2522       C  0.88657809  0.28415999  0.47295124    -0.20100
C2523       C  0.88692736  0.30198398  0.47031598    -0.09700
C2524       C  0.87724706  0.31037204  0.44546549    -0.10300
C2525       C  0.86721109  0.30051257  0.42338000    -0.03200
C2526       C  0.86684155  0.28269374  0.42604335    -0.18300
H2527       H  0.85603723  0.19021130  0.39552781     0.10800
H2528       H  0.85492083  0.22135538  0.39282781     0.10800
H2529       H  0.89135941  0.22436102  0.47456165     0.10500
H2530       H  0.89218588  0.19339721  0.47767255     0.11600
H2531       H  0.86747835  0.24922549  0.40631812     0.11700
H2532       H  0.88123107  0.25045435  0.47874031     0.13600
H2533       H  0.89418500  0.27804539  0.49234046     0.10100
H2534       H  0.89476859  0.30917915  0.48779471     0.12200
H2535       H  0.85947474  0.30657371  0.40413861     0.08800
H2536       H  0.85858759  0.27571140  0.40907845     0.11600
C2537       C  0.87394565  0.12397295  0.57364360    -0.03000
C2538       C  0.88883502  0.12925712  0.59064473    -0.05600
C2539       C  0.89000439  0.12792349  0.62572877    -0.20700
C2540       C  0.87623374  0.12158882  0.64463125     0.25000
C2541       C  0.86134227  0.11624927  0.62773626    -0.18300
C2542       C  0.86023178  0.11740104  0.59259572    -0.08200
C2543       C  0.87791932  0.12031410  0.68179320    -0.18500
C2544       C  0.86451626  0.12221646  0.70271865    -0.23300
C2545       C  0.86614877  0.12167934  0.73992531     0.27100
C2546       C  0.85490602  0.13150249  0.75945648    -0.20100
C2547       C  0.85607171  0.13141127  0.79458126    -0.09700
C2548       C  0.86830239  0.12119236  0.81095047    -0.10300
C2549       C  0.87928726  0.11098941  0.79145686    -0.03200
C2550       C  0.87829333  0.11129569  0.75621039    -0.18300
H2551       H  0.89971910  0.13419469  0.57680178     0.10800
H2552       H  0.90165504  0.13197584  0.63818098     0.10800
H2553       H  0.85067206  0.11084948  0.64152656     0.10500
H2554       H  0.84866893  0.11304178  0.58026634     0.11600
H2555       H  0.89069001  0.11890110  0.69219942     0.11700
H2556       H  0.85207221  0.12544591  0.69236389     0.13600
H2557       H  0.84534057  0.13945884  0.74746367     0.10100
H2558       H  0.84730385  0.13928431  0.80895442     0.12200
H2559       H  0.88877626  0.10294735  0.80342903     0.08800
H2560       H  0.88684749  0.10322357  0.74181663     0.11600
C2561       C  0.87136086  0.12700269  0.07341898    -0.03000
C2562       C  0.88159856  0.13931435  0.08953669    -0.05600
C2563       C  0.88307539  0.13952144  0.12463475    -0.20700
C2564       C  0.87471229  0.12718768  0.14431122     0.25000
C2565       C  0.86436851  0.11489654  0.12831651    -0.18300
C2566       C  0.86261944  0.11488452  0.09315947    -0.08200
C2567       C  0.87629174  0.12809286  0.18150142    -0.18500
C2568       C  0.87588989  0.11422523  0.20159836    -0.23300
C2569       C  0.87677346  0.11557303  0.23889528     0.27100
C2570       C  0.88435817  0.10241443  0.25774860    -0.20100
C2571       C  0.88486734  0.10329095  0.29305897    -0.09700
C2572       C  0.87752330  0.11724105  0.31013013    -0.10300
C2573       C  0.86984121  0.13032637  0.29110586    -0.03200
C2574       C  0.86946018  0.12950655  0.25596743    -0.18300
H2575       H  0.88841770  0.14886850  0.07499013     0.10800
H2576       H  0.89093841  0.14923400  0.13645613     0.10800
H2577       H  0.85739829  0.10549777  0.14294393     0.10500
H2578       H  0.85466769  0.10523511  0.08139247     0.11600
H2579       H  0.87856840  0.14060528  0.19254731     0.11700
H2580       H  0.87543970  0.10154087  0.19045454     0.13600
H2581       H  0.88994770  0.09148057  0.24511126     0.10100
H2582       H  0.89081737  0.09297148  0.30696406     0.12200
H2583       H  0.86393797  0.14119964  0.30336715     0.08800
H2584       H  0.86304948  0.13961429  0.24227812     0.11600
C2585       C  0.69683207  0.12603712  0.32975500    -0.03000
C2586       C  0.70939506  0.11786455  0.31017782    -0.05600
C2587       C  0.72646742  0.11761542  0.32076470    -0.20700
C2588       C  0.73132800  0.12526046  0.35136927     0.25000
C2589       C  0.71880732  0.13359434  0.37080765    -0.18300
C2590       C  0.70177554  0.13398631  0.36008682    -0.08200
C2591       C  0.74964407  0.12494604  0.36141516    -0.18500
C2592       C  0.75507181  0.12611105  0.39365304    -0.23300
C2593       C  0.77349735  0.12594314  0.40294090     0.27100
C2594       C  0.77853455  0.11948577  0.43450295    -0.20100
C2595       C  0.79586373  0.11897002  0.44356763    -0.09700
C2596       C  0.80844860  0.12523801  0.42143701    -0.10300
C2597       C  0.80329250  0.13216415  0.39028559    -0.03200
C2598       C  0.78606711  0.13250947  0.38113992    -0.18300
H2599       H  0.70604046  0.11163297  0.28668722     0.10800
H2600       H  0.73589757  0.11126795  0.30513946     0.10800
H2601       H  0.72213341  0.14007151  0.39401896     0.10500
H2602       H  0.69243746  0.14040255  0.37579899     0.11600
H2603       H  0.75895808  0.12292894  0.34147124     0.11700
H2604       H  0.74579807  0.12636672  0.41404337     0.13600
H2605       H  0.76905763  0.11457083  0.45194537     0.10100
H2606       H  0.79939909  0.11368749  0.46783715     0.12200
H2607       H  0.81261133  0.13721437  0.37266763     0.08800
H2608       H  0.78263964  0.13813268  0.35712975     0.11600
C2609       C  0.87863244  0.80960255  0.55586327    -0.03000
C2610       C  0.88576235  0.80115403  0.52788164    -0.05600
C2611       C  0.88645879  0.78327841  0.52680563    -0.20700
C2612       C  0.88008991  0.77336572  0.55359618     0.25000
C2613       C  0.87314337  0.78186419  0.58183433    -0.18300
C2614       C  0.87232413  0.79973354  0.58277627    -0.08200
C2615       C  0.88134877  0.75433679  0.55125859    -0.18500
C2616       C  0.87269343  0.74342181  0.57141004    -0.23300
C2617       C  0.87361130  0.72439275  0.56909092     0.27100
C2618       C  0.86126358  0.71475369  0.58646280    -0.20100
C2619       C  0.86151814  0.69689648  0.58563314    -0.09700
C2620       C  0.87417152  0.68813798  0.56733092    -0.10300
C2621       C  0.88663235  0.69771431  0.55002749    -0.03200
C2622       C  0.88644430  0.71563406  0.55102820    -0.18300
H2623       H  0.89075750  0.80834876  0.50670978     0.10800
H2624       H  0.89198903  0.77715683  0.50481728     0.10800
H2625       H  0.86856432  0.77493176  0.60360302     0.10500
H2626       H  0.86693075  0.80583567  0.60490160     0.11600
H2627       H  0.88928291  0.74927204  0.53115813     0.11700
H2628       H  0.86384867  0.74851036  0.58992720     0.13600
H2629       H  0.85128020  0.72108140  0.60075583     0.10100
H2630       H  0.85170949  0.68995325  0.59923760     0.12200
H2631       H  0.89666506  0.69135172  0.53596104     0.08800
H2632       H  0.89651294  0.72242376  0.53800916     0.11600
C2633       C  0.94152567  0.88027266  0.55249320    -0.03000
C2634       C  0.95037489  0.86887641  0.53136048    -0.05600
C2635       C  0.96822728  0.86891077  0.53021882    -0.20700
C2636       C  0.97778257  0.88027862  0.55014397     0.25000
C2637       C  0.96892937  0.89188284  0.57104924    -0.18300
C2638       C  0.95101637  0.89183024  0.57221781    -0.08200
C2639       C  0.99681856  0.87949813  0.54775400    -0.18500
C2640       C  0.00773626  0.88773047  0.56851819    -0.23300
C2641       C  0.02669727  0.88641706  0.56568351     0.27100
C2642       C  0.03682953  0.89945190  0.57961705    -0.20100
C2643       C  0.05468182  0.89864980  0.57799055    -0.09700
C2644       C  0.06286016  0.88469650  0.56250591    -0.10300
C2645       C  0.05273589  0.87153458  0.54886261    -0.03200
C2646       C  0.03488083  0.87232090  0.55055757    -0.18300
H2647       H  0.94351667  0.85980519  0.51576792     0.10800
H2648       H  0.97461722  0.85987421  0.51376118     0.10800
H2649       H  0.97560222  0.90113444  0.58640034     0.10500
H2650       H  0.94460299  0.90086092  0.58862755     0.11600
H2651       H  0.00200470  0.87161970  0.52767741     0.11700
H2652       H  0.00284033  0.89603272  0.58814941     0.13600
H2653       H  0.03089603  0.91037718  0.59168606     0.10100
H2654       H  0.06206837  0.90899299  0.58884409     0.12200
H2655       H  0.05861066  0.86049086  0.53713103     0.08800
H2656       H  0.02763935  0.86167969  0.54060098     0.11600
C2657       C  0.86924127  0.94288152  0.54565243    -0.03000
C2658       C  0.85375886  0.94960657  0.53348439    -0.05600
C2659       C  0.85267686  0.96661190  0.52308464    -0.20700
C2660       C  0.86707904  0.97727492  0.52398352     0.25000
C2661       C  0.88252135  0.97076458  0.53698367    -0.18300
C2662       C  0.88355593  0.95371835  0.54787319    -0.08200
C2663       C  0.86522722  0.99517531  0.51199668    -0.18500
C2664       C  0.87814388  0.00442862  0.49880905    -0.23300
C2665       C  0.87588181  0.02224562  0.48635170     0.27100
C2666       C  0.88718433  0.02869594  0.46190310    -0.20100
C2667       C  0.88586931  0.04564298  0.45077104    -0.09700
C2668       C  0.87329524  0.05657087  0.46413181    -0.10300
C2669       C  0.86183971  0.05001974  0.48828136    -0.03200
C2670       C  0.86315085  0.03311218  0.49936677    -0.18300
H2671       H  0.84246577  0.94163741  0.53159173     0.10800
H2672       H  0.84058775  0.97136005  0.51358120     0.10800
H2673       H  0.89375120  0.97879555  0.53892516     0.10500
H2674       H  0.89566210  0.94889151  0.55709106     0.11600
H2675       H  0.85240365  0.00047260  0.51208028     0.11700
H2676       H  0.89061138  0.99854973  0.49558186     0.13600
H2677       H  0.89714440  0.02063234  0.45156985     0.10100
H2678       H  0.89495000  0.05027774  0.43224848     0.12200
H2679       H  0.85211120  0.05809446  0.49939960     0.08800
H2680       H  0.85450784  0.02883155  0.51895011     0.11600
C2681       C  0.87817238  0.68881011  0.05743018    -0.03000
C2682       C  0.88673608  0.69690171  0.03058910    -0.05600
C2683       C  0.88718110  0.71476580  0.02821920    -0.20700
C2684       C  0.87922783  0.72504257  0.05269476     0.25000
C2685       C  0.87054129  0.71692844  0.07948190    -0.18300
C2686       C  0.87005936  0.69906123  0.08179812    -0.08200
C2687       C  0.87968088  0.74403611  0.04843774    -0.18500
C2688       C  0.87625603  0.75524346  0.07344079    -0.23300
C2689       C  0.87566089  0.77418088  0.06902625     0.27100
C2690       C  0.86636745  0.78380309  0.09262012    -0.20100
C2691       C  0.86543241  0.80159591  0.09008371    -0.09700
C2692       C  0.87400267  0.81034603  0.06407218    -0.10300
C2693       C  0.88343560  0.80077062  0.04046182    -0.03200
C2694       C  0.88425738  0.78287423  0.04285118    -0.18300
H2695       H  0.89303664  0.68943045  0.01123368     0.10800
H2696       H  0.89381102  0.72059177  0.00712426     0.10800
H2697       H  0.86373801  0.72419192  0.09838778     0.10500
H2698       H  0.86324270  0.69327625  0.10269099     0.11600
H2699       H  0.88282507  0.74884030  0.02351094     0.11700
H2700       H  0.87318952  0.75047159  0.09840554     0.13600
H2701       H  0.85968806  0.77750073  0.11312249     0.10100
H2702       H  0.85810490  0.80851232  0.10882306     0.12200
H2703       H  0.89024603  0.80711051  0.02019618     0.08800
H2704       H  0.89190530  0.77601843  0.02460128     0.11600
C2705       C  0.93522588  0.88522654  0.06213646    -0.03000
C2706       C  0.94292242  0.89844858  0.08083903    -0.05600
C2707       C  0.96074550  0.90017142  0.08172320    -0.20700
C2708       C  0.97129407  0.88866413  0.06422286     0.25000
C2709       C  0.96355226  0.87558411  0.04511825    -0.18300
C2710       C  0.94577557  0.87385178  0.04427064    -0.08200
C2711       C  0.99021102  0.89100292  0.06557993    -0.18500
C2712       C  0.00135478  0.87830158  0.05888574    -0.23300
C2713       C  0.02027822  0.88026296  0.05858334     0.27100
C2714       C  0.02988137  0.86813260  0.04070815    -0.20100
C2715       C  0.04770404  0.86889451  0.04026110    -0.09700
C2716       C  0.05647532  0.88174428  0.05805759    -0.10300
C2717       C  0.04689701  0.89397761  0.07596987    -0.03200
C2718       C  0.02896691  0.89326655  0.07624534    -0.18300
H2719       H  0.93518381  0.90749935  0.09478138     0.10800
H2720       H  0.96632180  0.91047511  0.09632329     0.10800
H2721       H  0.97105712  0.86681933  0.03012430     0.10500
H2722       H  0.94029937  0.86362184  0.02934507     0.11600
H2723       H  0.99496293  0.90357237  0.07239537     0.11700
H2724       H  0.99651433  0.86570522  0.05259088     0.13600
H2725       H  0.02354828  0.85795797  0.02696469     0.10100
H2726       H  0.05460920  0.85923933  0.02620453     0.12200
H2727       H  0.05325231  0.90400731  0.09003857     0.08800
H2728       H  0.02206821  0.90264364  0.09095588     0.11600
C2729       C  0.88051667  0.87729660  0.69182235    -0.03000
C2730       C  0.89031296  0.88931118  0.70977090    -0.05600
C2731       C  0.89059066  0.88908377  0.74510935    -0.20700
C2732       C  0.88084061  0.87708519  0.76315928     0.25000
C2733       C  0.87122302  0.86492753  0.74524759    -0.18300
C2734       C  0.87109509  0.86501594  0.71001920    -0.08200
C2735       C  0.88127784  0.87719388  0.80058183    -0.18500
C2736       C  0.86774014  0.87259372  0.81955587    -0.23300
C2737       C  0.86803293  0.87287389  0.85694938     0.27100
C2738       C  0.85293271  0.87661034  0.87456899    -0.20100
C2739       C  0.85279480  0.87699105  0.90983639    -0.09700
C2740       C  0.86770119  0.87326012  0.92821806    -0.10300
C2741       C  0.88273277  0.86911104  0.91052287    -0.03200
C2742       C  0.88292066  0.86898043  0.87524379    -0.18300
H2743       H  0.89776652  0.89887343  0.69653064     0.10800
H2744       H  0.89823663  0.89846605  0.75841346     0.10800
H2745       H  0.86396563  0.85518264  0.75838128     0.10500
H2746       H  0.86346613  0.85550404  0.69704881     0.11600
H2747       H  0.89272363  0.88207978  0.81276410     0.11700
H2748       H  0.85569995  0.86945885  0.80736275     0.13600
H2749       H  0.84126807  0.87947906  0.86097957     0.10100
H2750       H  0.84098464  0.88013819  0.92269998     0.12200
H2751       H  0.89441421  0.86611243  0.92392694     0.08800
H2752       H  0.89464770  0.86558751  0.86235608     0.11600
C2753       C  0.86791397  0.87790888  0.42908946    -0.03000
C2754       C  0.85614500  0.88901969  0.41366071    -0.05600
C2755       C  0.85599802  0.89104163  0.37857261    -0.20700
C2756       C  0.86742852  0.88185478  0.35816434     0.25000
C2757       C  0.87909461  0.87062040  0.37360848    -0.18300
C2758       C  0.87929436  0.86865821  0.40861983    -0.08200
C2759       C  0.86736292  0.88475755  0.32109510    -0.18500
C2760       C  0.87286267  0.87293370  0.29895597    -0.23300
C2761       C  0.87275666  0.87537422  0.26185714     0.27100
C2762       C  0.87170723  0.86081472  0.24140855    -0.20100
C2763       C  0.87148477  0.86232353  0.20640364    -0.09700
C2764       C  0.87259407  0.87845099  0.19087931    -0.10300
C2765       C  0.87423617  0.89307146  0.21122208    -0.03200
C2766       C  0.87422897  0.89156525  0.24650075    -0.18300
H2767       H  0.84730217  0.89645101  0.42873188     0.10800
H2768       H  0.84697259  0.89986042  0.36733635     0.10800
H2769       H  0.88847168  0.86369341  0.35893679     0.10500
H2770       H  0.88859698  0.86008463  0.41969130     0.11600
H2771       H  0.86193347  0.89663741  0.31183027     0.11700
H2772       H  0.87666141  0.86042082  0.30811736     0.13600
H2773       H  0.87079974  0.84819867  0.25258359     0.10100
H2774       H  0.87043061  0.85077902  0.19143316     0.12200
H2775       H  0.87521212  0.90564024  0.19990566     0.08800
H2776       H  0.87557588  0.90302028  0.26158668     0.11600
C2777       C  0.86027569  0.94344340  0.04007134    -0.03000
C2778       C  0.84529440  0.94941159  0.02439967    -0.05600
C2779       C  0.84374064  0.96655142  0.01483943    -0.20700
C2780       C  0.85723808  0.97808399  0.01996755     0.25000
C2781       C  0.87211258  0.97226495  0.03637027    -0.18300
C2782       C  0.87356884  0.95512950  0.04645202    -0.08200
C2783       C  0.85521013  0.99606379  0.00824914    -0.18500
C2784       C  0.86843881  0.00583428  0.99795401    -0.23300
C2785       C  0.86658558  0.02361209  0.98480585     0.27100
C2786       C  0.87978590  0.03047479  0.96490806    -0.20100
C2787       C  0.87909426  0.04740184  0.95352906    -0.09700
C2788       C  0.86527372  0.05800112  0.96222686    -0.10300
C2789       C  0.85188616  0.05107255  0.98166100    -0.03200
C2790       C  0.85250608  0.03408088  0.99280757    -0.18300
H2791       H  0.83476404  0.94078295  0.01932149     0.10800
H2792       H  0.83207322  0.97073219  0.00263700     0.10800
H2793       H  0.88258478  0.98091965  0.04161745     0.10500
H2794       H  0.88526225  0.95093664  0.05851238     0.11600
H2795       H  0.84225726  0.00085980  0.00574785     0.11700
H2796       H  0.88117814  0.00031916  0.99757445     0.13600
H2797       H  0.89080664  0.02275922  0.95845956     0.10100
H2798       H  0.88969815  0.05235197  0.93887747     0.12200
H2799       H  0.84108854  0.05890921  0.98894580     0.08800
H2800       H  0.84223018  0.02946579  0.00865685     0.11600
C2801       C  0.62355049  0.81242996  0.68776860    -0.03000
C2802       C  0.61467421  0.80446516  0.71436530    -0.05600
C2803       C  0.61369114  0.78663388  0.71634645    -0.20700
C2804       C  0.62161170  0.77629228  0.69197610     0.25000
C2805       C  0.63040234  0.78426689  0.66518136    -0.18300
C2806       C  0.63142135  0.80210585  0.66324404    -0.08200
C2807       C  0.61985372  0.75736269  0.69486231    -0.18500
C2808       C  0.63021451  0.74614637  0.67907673    -0.23300
C2809       C  0.62821458  0.72724324  0.68099928     0.27100
C2810       C  0.63542340  0.71725345  0.65525522    -0.20100
C2811       C  0.63415176  0.69943956  0.65596616    -0.09700
C2812       C  0.62568379  0.69113241  0.68262101    -0.10300
C2813       C  0.61853492  0.70109339  0.70859894    -0.03200
C2814       C  0.61983561  0.71895559  0.70790698    -0.18300
H2815       H  0.60843201  0.81200894  0.73369159     0.10800
H2816       H  0.60672448  0.78088470  0.73710872     0.10800
H2817       H  0.63621994  0.77690478  0.64515979     0.10500
H2818       H  0.63821916  0.80781205  0.64224571     0.11600
H2819       H  0.60957139  0.75261436  0.71071855     0.11700
H2820       H  0.64051842  0.75085563  0.66326696     0.13600
H2821       H  0.64203039  0.72327776  0.63433855     0.10100
H2822       H  0.63982597  0.69217402  0.63557615     0.12200
H2823       H  0.61213513  0.69507385  0.72974850     0.08800
H2824       H  0.61457393  0.72611306  0.72881634     0.11600
C2825       C  0.44029131  0.87829894  0.69511897    -0.03000
C2826       C  0.44900854  0.86733087  0.71736055    -0.05600
C2827       C  0.46684284  0.86753023  0.71916227    -0.20700
C2828       C  0.47644800  0.87857850  0.69867878     0.25000
C2829       C  0.46772737  0.88981983  0.67685806    -0.18300
C2830       C  0.44985694  0.88961568  0.67504439    -0.08200
C2831       C  0.49542856  0.87806652  0.70135716    -0.18500
C2832       C  0.50607733  0.88431245  0.67762072    -0.23300
C2833       C  0.52500745  0.88358784  0.68024956     0.27100
C2834       C  0.53470389  0.89571848  0.66250631    -0.20100
C2835       C  0.55255206  0.89531703  0.66343938    -0.09700
C2836       C  0.56114277  0.88266070  0.68200827    -0.10300
C2837       C  0.55144482  0.87042062  0.69967191    -0.03200
C2838       C  0.53356330  0.87082599  0.69872182    -0.18300
H2839       H  0.44206279  0.85852087  0.73340120     0.10800
H2840       H  0.47317609  0.85886123  0.73643336     0.10800
H2841       H  0.47451148  0.89898307  0.66145016     0.10500
H2842       H  0.44353829  0.89836662  0.65794285     0.11600
H2843       H  0.50075307  0.87202752  0.72365376     0.11700
H2844       H  0.50091853  0.89046574  0.65534998     0.13600
H2845       H  0.52842843  0.90560581  0.64792255     0.10100
H2846       H  0.55961747  0.90494364  0.64956860     0.12200
H2847       H  0.55767040  0.86037302  0.71388649     0.08800
H2848       H  0.52656008  0.86090344  0.71182423     0.11600
C2849       C  0.63029472  0.94546640  0.69977743    -0.03000
C2850       C  0.61697085  0.95621236  0.68898027    -0.05600
C2851       C  0.61606480  0.97320254  0.70013371    -0.20700
C2852       C  0.62852046  0.97989250  0.72202859     0.25000
C2853       C  0.64193022  0.96917636  0.73257935    -0.18300
C2854       C  0.64281329  0.95222651  0.72152917    -0.08200
C2855       C  0.62668371  0.99774773  0.73469130    -0.18500
C2856       C  0.63991892  0.00711015  0.74634121    -0.23300
C2857       C  0.63818128  0.02491741  0.75907078     0.27100
C2858       C  0.65233651  0.03589823  0.75691414    -0.20100
C2859       C  0.65120373  0.05283061  0.76795223    -0.09700
C2860       C  0.63595312  0.05910484  0.78207845    -0.10300
C2861       C  0.62196617  0.04792862  0.78555159    -0.03200
C2862       C  0.62302884  0.03101454  0.77403412    -0.18300
H2863       H  0.60701555  0.95139506  0.67253145     0.10800
H2864       H  0.60552074  0.98111412  0.69182982     0.10800
H2865       H  0.65149723  0.97359615  0.75024230     0.10500
H2866       H  0.65315655  0.94430018  0.73069955     0.11600
H2867       H  0.61409526  0.00354112  0.73316212     0.11700
H2868       H  0.65278115  0.00197056  0.74480505     0.13600
H2869       H  0.66423317  0.03145909  0.74595743     0.10100
H2870       H  0.66225218  0.06107399  0.76513483     0.12200
H2871       H  0.61004927  0.05238297  0.79636630     0.08800
H2872       H  0.61203248  0.02274880  0.77708791     0.11600
C2873       C  0.80987413  0.87284577  0.59153437    -0.03000
C2874       C  0.80619158  0.86699333  0.62430295    -0.05600
C2875       C  0.78958505  0.86787015  0.63714107    -0.20700
C2876       C  0.77620759  0.87427653  0.61734367     0.25000
C2877       C  0.77981072  0.88002160  0.58439982    -0.18300
C2878       C  0.79650970  0.87936988  0.57168774    -0.08200
C2879       C  0.75881559  0.87527628  0.63227345    -0.18500
C2880       C  0.74449648  0.87416973  0.61364665    -0.23300
C2881       C  0.72702619  0.87441427  0.62832440     0.27100
C2882       C  0.71384576  0.86631395  0.61051821    -0.20100
C2883       C  0.69712475  0.86651709  0.62275765    -0.09700
C2884       C  0.69308684  0.87509107  0.65293287    -0.10300
C2885       C  0.70625160  0.88334600  0.67076577    -0.03200
C2886       C  0.72309822  0.88296656  0.65865051    -0.18300
H2887       H  0.81624665  0.86211937  0.64042811     0.10800
H2888       H  0.78717103  0.86350000  0.66264853     0.10800
H2889       H  0.76988075  0.88545666  0.56872794     0.10500
H2890       H  0.79899055  0.88411462  0.54647865     0.11600
H2891       H  0.75784232  0.87582642  0.65958632     0.11700
H2892       H  0.74555555  0.87190142  0.58668906     0.13600
H2893       H  0.71649984  0.85976632  0.58699679     0.10100
H2894       H  0.68727958  0.86019467  0.60812770     0.12200
H2895       H  0.70351526  0.89018607  0.69390432     0.08800
H2896       H  0.73288143  0.88973323  0.67259909     0.11600
C2897       C  0.62069021  0.80909303  0.17138430    -0.03000
C2898       C  0.63097156  0.80082589  0.14723053    -0.05600
C2899       C  0.63144640  0.78297739  0.14526726    -0.20700
C2900       C  0.62182399  0.77286303  0.16754196     0.25000
C2901       C  0.61124320  0.78109447  0.19133211    -0.18300
C2902       C  0.61073217  0.79899747  0.19326266    -0.08200
C2903       C  0.62300053  0.75387116  0.16460139    -0.18500
C2904       C  0.61954733  0.74302249  0.19020652    -0.23300
C2905       C  0.62097401  0.72400053  0.18805954     0.27100
C2906       C  0.61298328  0.71411705  0.21312249    -0.20100
C2907       C  0.61396716  0.69625701  0.21266809    -0.09700
C2908       C  0.62312602  0.68774317  0.18718680    -0.10300
C2909       C  0.63137695  0.69760480  0.16229763    -0.03200
C2910       C  0.63034427  0.71550978  0.16268757    -0.18300
H2911       H  0.63876719  0.80814674  0.12984876     0.10800
H2912       H  0.63958010  0.77702820  0.12648105     0.10800
H2913       H  0.60315565  0.77382468  0.20821732     0.10500
H2914       H  0.60252867  0.80492726  0.21192075     0.11600
H2915       H  0.62733866  0.74883886  0.14057142     0.11700
H2916       H  0.61538611  0.74822565  0.21424299     0.13600
H2917       H  0.60581522  0.72025561  0.23316664     0.10100
H2918       H  0.60754625  0.68912408  0.23236468     0.12200
H2919       H  0.63866576  0.69148381  0.14242437     0.08800
H2920       H  0.63713761  0.72252244  0.14339593     0.11600
C2921       C  0.55659539  0.88014422  0.17534210    -0.03000
C2922       C  0.54844596  0.89141554  0.15285089    -0.05600
C2923       C  0.53058213  0.89249338  0.15180631    -0.20700
C2924       C  0.52042357  0.88247143  0.17336717     0.25000
C2925       C  0.52860934  0.87089847  0.19532370    -0.18300
C2926       C  0.54644600  0.86981082  0.19633379    -0.08200
C2927       C  0.50142703  0.88412427  0.17148158    -0.18500
C2928       C  0.49074283  0.87857480  0.19588064    -0.23300
C2929       C  0.47177068  0.87926447  0.19363765     0.27100
C2930       C  0.46229409  0.86743393  0.21257662    -0.20100
C2931       C  0.44445227  0.86749492  0.21175850    -0.09700
C2932       C  0.43555143  0.87954381  0.19218152    -0.10300
C2933       C  0.44501375  0.89159573  0.17347816    -0.03200
C2934       C  0.46295514  0.89147561  0.17418843    -0.18300
H2935       H  0.55586639  0.89944508  0.13604596     0.10800
H2936       H  0.52467751  0.90132717  0.13428749     0.10800
H2937       H  0.52142159  0.86240314  0.21149242     0.10500
H2938       H  0.55228456  0.86087063  0.21371093     0.11600
H2939       H  0.49614776  0.89008955  0.14907208     0.11700
H2940       H  0.49592563  0.87266689  0.21837793     0.13600
H2941       H  0.46874472  0.85795828  0.22791098     0.10100
H2942       H  0.43763778  0.85803248  0.22652314     0.12200
H2943       H  0.43856417  0.90115668  0.15838191     0.08800
H2944       H  0.46980854  0.90111378  0.16000002     0.11600
C2945       C  0.63335768  0.88012731  0.81188620    -0.03000
C2946       C  0.64830334  0.88571644  0.82824503    -0.05600
C2947       C  0.64886184  0.88685987  0.86344882    -0.20700
C2948       C  0.63444006  0.88271936  0.88289487     0.25000
C2949       C  0.61954782  0.87699699  0.86656409    -0.18300
C2950       C  0.61902371  0.87572354  0.83147678    -0.08200
C2951       C  0.63555810  0.88349542  0.92017688    -0.18500
C2952       C  0.62184204  0.88620458  0.94001542    -0.23300
C2953       C  0.62261556  0.88544180  0.97733367     0.27100
C2954       C  0.61061669  0.89464140  0.99640608    -0.20100
C2955       C  0.61061436  0.89361447  0.03164382    -0.09700
C2956       C  0.62240754  0.88306095  0.04836926    -0.10300
C2957       C  0.63427620  0.87369575  0.02921641    -0.03200
C2958       C  0.63441554  0.87489015  0.99409347    -0.18300
H2959       H  0.65957694  0.88916956  0.81387896     0.10800
H2960       H  0.66054779  0.89109162  0.87553029     0.10800
H2961       H  0.60838224  0.87313490  0.88080844     0.10500
H2962       H  0.60732605  0.87131892  0.81970881     0.11600
H2963       H  0.64812529  0.88210217  0.93148748     0.11700
H2964       H  0.60962268  0.88938946  0.92863670     0.13600
H2965       H  0.60124529  0.90265887  0.98399609     0.10100
H2966       H  0.60121886  0.90085145  0.04575191     0.12200
H2967       H  0.64348597  0.86540695  0.04139075     0.08800
H2968       H  0.64347793  0.86717900  0.98016990     0.11600
C2969       C  0.62645077  0.88006741  0.54907454    -0.03000
C2970       C  0.63874537  0.86968311  0.53324451    -0.05600
C2971       C  0.64010328  0.86917828  0.49819247    -0.20700
C2972       C  0.62901381  0.87875296  0.47793174     0.25000
C2973       C  0.61670196  0.88926455  0.49355874    -0.18300
C2974       C  0.61551709  0.88999923  0.52889666    -0.08200
C2975       C  0.63113469  0.87771827  0.44074661    -0.18500
C2976       C  0.61816811  0.87961312  0.41878830    -0.23300
C2977       C  0.62033201  0.87734078  0.38176792     0.27100
C2978       C  0.60632292  0.87182343  0.36254560    -0.20100
C2979       C  0.60775891  0.86982974  0.32759182    -0.09700
C2980       C  0.62319561  0.87360825  0.31094454    -0.10300
C2981       C  0.63725673  0.87913107  0.33019942    -0.03200
C2982       C  0.63586220  0.88095799  0.36522488    -0.18300
H2983       H  0.64753057  0.86203582  0.54801376     0.10800
H2984       H  0.64978357  0.86111345  0.48682153     0.10800
H2985       H  0.60821677  0.89713484  0.47860999     0.10500
H2986       H  0.60600625  0.89820067  0.54039744     0.11600
H2987       H  0.64361538  0.87390395  0.43136671     0.11700
H2988       H  0.60531491  0.88172765  0.42831995     0.13600
H2989       H  0.59420489  0.86904040  0.37463817     0.10100
H2990       H  0.59662109  0.86572873  0.31351182     0.12200
H2991       H  0.64928457  0.88230041  0.31814457     0.08800
H2992       H  0.64682064  0.88565864  0.37907999     0.11600
C2993       C  0.62732485  0.94195148  0.20535051    -0.03000
C2994       C  0.61474893  0.95333689  0.19363717    -0.05600
C2995       C  0.61414660  0.97020821  0.20547850    -0.20700
C2996       C  0.62619743  0.97618571  0.22896620     0.25000
C2997       C  0.63889233  0.96485439  0.24046096    -0.18300
C2998       C  0.63945599  0.94797827  0.22874442    -0.08200
C2999       C  0.62477792  0.99406804  0.24173407    -0.18500
C3000       C  0.63818717  0.00302386  0.25380186    -0.23300
C3001       C  0.63701532  0.02118557  0.26476668     0.27100
C3002       C  0.65143842  0.03170009  0.26110431    -0.20100
C3003       C  0.65084987  0.04894142  0.27032958    -0.09700
C3004       C  0.63590414  0.05601959  0.28424148    -0.10300
C3005       C  0.62159415  0.04536421  0.28899787    -0.03200
C3006       C  0.62209762  0.02813069  0.27919634    -0.18300
H3007       H  0.60512545  0.94912291  0.17583142     0.10800
H3008       H  0.60418185  0.97861685  0.19632650     0.10800
H3009       H  0.64813109  0.96878051  0.25923651     0.10500
H3010       H  0.64922035  0.93954588  0.23860498     0.11600
H3011       H  0.61247286  0.00037058  0.23923008     0.11700
H3012       H  0.65084504  0.99734375  0.25325367     0.13600
H3013       H  0.66313749  0.02662958  0.25038234     0.10100
H3014       H  0.66212330  0.05675675  0.26648801     0.12200
H3015       H  0.60988761  0.05043632  0.29965359     0.08800
H3016       H  0.61088484  0.02026547  0.28319122     0.11600
C3017       C  0.80279909  0.87119256  0.07880308    -0.03000
C3018       C  0.79035859  0.87718590  0.05613383    -0.05600
C3019       C  0.77298260  0.87646040  0.06456805    -0.20700
C3020       C  0.76773459  0.87006055  0.09602327     0.25000
C3021       C  0.78014422  0.86377379  0.11843193    -0.18300
C3022       C  0.79746196  0.86431396  0.10988255    -0.08200
C3023       C  0.74924374  0.86968796  0.10445942    -0.18500
C3024       C  0.74335151  0.87106244  0.13631975    -0.23300
C3025       C  0.72486315  0.87089943  0.14481210     0.27100
C3026       C  0.71914895  0.87975267  0.17349532    -0.20100
C3027       C  0.70175430  0.88007919  0.18184027    -0.09700
C3028       C  0.68974952  0.87132728  0.16187061    -0.10300
C3029       C  0.69559546  0.86198901  0.13377824    -0.03200
C3030       C  0.71293889  0.86177062  0.12533732    -0.18300
H3031       H  0.79404510  0.88245570  0.03192335     0.10800
H3032       H  0.76362624  0.88118182  0.04671532     0.10800
H3033       H  0.77651470  0.85824631  0.14243046     0.10500
H3034       H  0.80669766  0.85950608  0.12787821     0.11600
H3035       H  0.74024386  0.86922380  0.08362166     0.11700
H3036       H  0.75230144  0.87334795  0.15677587     0.13600
H3037       H  0.72813738  0.88670763  0.18913203     0.10100
H3038       H  0.69770085  0.88732951  0.20370157     0.12200
H3039       H  0.68673709  0.85496388  0.11799046     0.08800
H3040       H  0.71697038  0.85432294  0.10373952     0.11600
loop_ 
_geom_bond_atom_site_label_1 
_geom_bond_atom_site_label_2 
_geom_bond_distance 
_geom_bond_site_symmetry_2 
_ccdc_geom_bond_type 
O1           C17   1.275       .  A
O1           Zn7   2.019       .  S
C2           O18   1.274       .  A
C2           O15   1.276       .  A
C2         C2956   1.478       .  S
O3           C16   1.277       .  A
O3          Cd10   2.083       .  S
O4           C22   1.278       .  A
O4          Cd13   2.086       .  S
O5           C19   1.277       .  A
O5           Cd9   2.080       .  S
O6           C17   1.277       .  A
O6           Cd9   2.091       .  S
Zn7          O18   2.006       .  S
Zn7          O20   2.006       .  S
Zn7          O12   1.934       .  S
O8           C19   1.275       .  A
O8          Cd13   2.070       .  S
Cd9          O11   2.076       .  S
Cd9          O12   2.000       .  S
Cd10         O14   2.073       .  S
Cd10         O23   2.073       .  S
Cd10         O12   2.002       .  S
O11          C21   1.277       .  A
O12         Cd13   2.005       .  S
Cd13         O15   2.074       .  S
O14          C21   1.277       .  A
C16          O20   1.273       .  A
C16        C3028   1.484       .  S
C17        C2897   1.489       .  S
C19        C2921   1.485       .  S
C21        C2980   1.484       .  S
C22          O23   1.276       .  A
C22        C2993   1.488       .  S
O24          C40   1.276       .  A
O24         Zn30   2.030       .  S
C25          O41   1.274       .  A
C25          O38   1.279       .  A
C25        C2969   1.482       .  S
O26          C39   1.276       .  A
O26         Cd33   2.084       .  S
O27          C45   1.279       .  A
O27         Cd36   2.093       .  S
O28          C42   1.275       .  A
O28         Cd32   2.069       .  S
O29          C40   1.275       .  A
O29         Cd32   2.070       .  S
Zn30         O41   1.997       .  S
Zn30         O43   2.001       .  S
Zn30         O35   1.926       .  S
O31          C42   1.276       .  A
O31         Cd36   2.075       .  S
Cd32         O34   2.063       .  S
Cd32         O35   1.990       .  S
Cd33         O37   2.072       .  S
Cd33         O46   2.065       .  S
Cd33         O35   2.000       .  S
O34          C44   1.276       .  A
O35         Cd36   2.006       .  S
Cd36         O38   2.096       .  S
O37          C44   1.276       .  A
C39          O43   1.273       .  A
C39        C2884   1.482       .  S
C40        C2801   1.485       .  S
C42        C2836   1.482       .  S
C44        C2945   1.480       .  S
C45          O46   1.275       .  A
C45        C2849   1.487       .  S
O47          C63   1.274       .  A
O47         Zn53   2.014       .  S
C48          O64   1.272       .  A
C48          O61   1.278       .  A
C48        C2764   1.479       .  S
O49          C62   1.276       .  A
O49         Cd56   2.080       .  S
O50          C68   1.279       .  A
O50         Cd59   2.095       .  S
O51          C65   1.277       .  A
O51         Cd55   2.074       .  S
O52          C63   1.276       .  A
O52         Cd55   2.091       .  S
Zn53         O64   1.987       .  S
Zn53         O66   2.006       .  S
Zn53         O58   1.925       .  S
O54          C65   1.276       .  A
O54         Cd59   2.077       .  S
Cd55         O57   2.071   1_554  S
Cd55         O58   2.000       .  S
Cd56         O60   2.073   1_554  S
Cd56         O69   2.071       .  S
Cd56         O58   1.998       .  S
O57          C67   1.276       .  A
O58         Cd59   2.013       .  S
Cd59         O61   2.095       .  S
O60          C67   1.277       .  A
C62          O66   1.273       .  A
C62        C3017   1.482       .  S
C63        C2692   1.488       .  S
C65        C2705   1.485       .  S
C67        C2740   1.481       .  S
C68          O69   1.276       .  A
C68        C2777   1.486       .  S
O70          C86   1.276       .  A
O70         Zn76   2.027       .  S
C71          O87   1.274       .  A
C71          O84   1.279       .  A
C71        C2729   1.484       .  S
O72          C85   1.275       .  A
O72         Cd79   2.076       .  S
O73          C91   1.279       .  A
O73         Cd82   2.098       .  S
O74          C88   1.276       .  A
O74         Cd78   2.071       .  S
O75          C86   1.275       .  A
O75         Cd78   2.075       .  S
Zn76         O87   2.000       .  S
Zn76         O89   2.009       .  S
Zn76         O81   1.934       .  S
O77          C88   1.277       .  A
O77         Cd82   2.082       .  S
Cd78         O80   2.069       .  S
Cd78         O81   1.993       .  S
Cd79         O83   2.072       .  S
Cd79         O92   2.055       .  S
Cd79         O81   1.998       .  S
O80          C90   1.276       .  A
O81         Cd82   2.012       .  S
Cd82         O84   2.092       .  S
O83          C90   1.276       .  A
C85          O89   1.273       .  A
C85        C2873   1.480       .  S
C86        C2609   1.485       .  S
C88        C2633   1.486       .  S
C90        C2753   1.482       .  S
C91          O92   1.274       .  A
C91        C2657   1.483       .  S
O93         C109   1.274       .  A
O93         Zn99   2.012       .  S
C94         O110   1.274       .  A
C94         O107   1.277       .  A
C94        C2572   1.483       .  S
O95         C108   1.278       .  A
O95        Cd102   2.094       .  S
O96         C114   1.277       .  A
O96        Cd105   2.080       .  S
O97         C111   1.275       .  A
O97        Cd101   2.064       .  S
O98         C109   1.275       .  A
O98        Cd101   2.073       .  S
Zn99        O110   2.002       .  S
Zn99        O112   1.998       .  S
Zn99        O104   1.927       .  S
O100        C111   1.277       .  A
O100       Cd105   2.080       .  S
Cd101       O103   2.064       .  S
Cd101       O104   1.992       .  S
Cd102       O106   2.081       .  S
Cd102       O115   2.071       .  S
Cd102       O104   2.004       .  S
O103        C113   1.275       .  A
O104       Cd105   2.006       .  S
Cd105       O107   2.084       .  S
O106        C113   1.277       .  A
C108        O112   1.273       .  A
C108       C2596   1.484       .  S
C109       C2513   1.482       .  S
C111       C2500   1.484       .  S
C113       C2537   1.482       .  S
C114        O115   1.276       .  A
C114       C2668   1.485       .  S
O116        C132   1.275       .  A
O116       Zn122   2.025       .  S
C117        O133   1.273       .  A
C117        O130   1.277       .  A
C117       C2548   1.477       .  S
O118        C131   1.278       .  A
O118       Cd125   2.100       .  S
O119        C137   1.278       .  A
O119       Cd128   2.084       .  S
O120        C134   1.276       .  A
O120       Cd124   2.078       .  S
O121        C132   1.274       .  A
O121       Cd124   2.069       .  S
Zn122       O133   1.996       .  S
Zn122       O135   1.999       .  S
Zn122       O127   1.934       .  S
O123        C134   1.276       .  A
O123       Cd128   2.081       .  S
Cd124       O126   2.060   1_556  S
Cd124       O127   1.994       .  S
Cd125       O129   2.084   1_556  S
Cd125       O138   2.075       .  S
Cd125       O127   2.011       .  S
O126        C136   1.276       .  A
O127       Cd128   2.005       .  S
Cd128       O130   2.080       .  S
O129        C136   1.278       .  A
C131        O135   1.272       .  A
C131       C2465   1.486       .  S
C132       C2441   1.484       .  S
C134       C2428   1.489       .  S
C136       C2561   1.478       .  S
C137        O138   1.276       .  A
C137       C2788   1.486       .  S
O139        C155   1.277       .  A
O139       Zn145   2.043       .  S
C140        O156   1.275       .  A
C140        O153   1.278       .  A
C140       C2369   1.484       .  S
O141        C154   1.277       .  A
O141       Cd148   2.079       .  S
O142        C160   1.278       .  A
O142       Cd151   2.089       .  S
O143        C157   1.273       .  A
O143       Cd147   2.051       .  S
O144        C155   1.274       .  A
O144       Cd147   2.067       .  S
Zn145       O156   2.011       .  S
Zn145       O158   2.019       .  S
Zn145       O150   1.939       .  S
O146        C157   1.276       .  A
O146       Cd151   2.077       .  S
Cd147       O149   2.062       .  S
Cd147       O150   1.988       .  S
Cd148       O152   2.080       .  S
Cd148       O161   2.073       .  S
Cd148       O150   1.999       .  S
O149        C159   1.275       .  A
O150       Cd151   2.010       .  S
Cd151       O153   2.087       .  S
O152        C159   1.277       .  A
C154        O158   1.275       .  A
C154       C2585   1.485       .  S
C155       C2356   1.487       .  S
C157       C2332   1.479       .  S
C159       C2393   1.480       .  S
C160        O161   1.276       .  A
C160       C3004   1.485       .  S
O162        C178   1.276       .  A
O162       Zn168   2.033       .  S
C163        O179   1.274       .  A
C163        O176   1.277       .  A
C163       C2404   1.480       .  S
O164        C177   1.277       .  A
O164       Cd171   2.089       .  S
O165        C183   1.278       .  A
O165       Cd174   2.088       .  S
O166        C180   1.276       .  A
O166       Cd170   2.074       .  S
O167        C178   1.275       .  A
O167       Cd170   2.072       .  S
Zn168       O179   1.999       .  S
Zn168       O181   2.010       .  S
Zn168       O173   1.938       .  S
O169        C180   1.276       .  A
O169       Cd174   2.080       .  S
Cd170       O172   2.063       .  S
Cd170       O173   1.992       .  S
Cd171       O175   2.085       .  S
Cd171       O184   2.067       .  S
Cd171       O173   2.007       .  S
O172        C182   1.275       .  A
O173       Cd174   2.012       .  S
Cd174       O176   2.081       .  S
O175        C182   1.277       .  A
C177        O181   1.274       .  A
C177       C2476   1.486       .  S
C178       C2297   1.488       .  S
C180       C2273   1.486       .  S
C182       C2380   1.481       .  S
C183        O184   1.275       .  A
C183       C2860   1.483       .  S
O185        C201   1.273       .  A
O185       Zn191   1.993       .  S
C186        O202   1.275       .  A
C186        O199   1.275       .  A
C186       C2164   1.485       .  S
O187        C200   1.276       .  A
O187       Cd194   2.087       .  S
O188        C206   1.275       .  A
O188       Cd197   2.068   1_556  S
O189        C203   1.278       .  A
O189       Cd193   2.091       .  S
O190        C201   1.280       .  A
O190       Cd193   2.105       .  S
Zn191       O202   2.024       .  S
Zn191       O204   2.005       .  S
Zn191       O196   1.929       .  S
O192        C203   1.276       .  A
O192       Cd197   2.065       .  S
Cd193       O195   2.104       .  S
Cd193       O196   2.022       .  S
Cd194       O198   2.049       .  S
Cd194       O207   2.073   1_554  S
Cd194       O196   1.997       .  S
O195        C205   1.280       .  A
O196       Cd197   1.993       .  S
Cd197       O199   2.072       .  S
O198        C205   1.273       .  A
C200        O204   1.273       .  A
C200       C2249   1.484       .  S
C201       C2201   1.481       .  S
C203       C2716   1.486       .  S
C205       C2225   1.484       .  S
C206        O207   1.276       .  A
C206       C2188   1.479       .  S
O208        C224   1.274       .  A
O208       Zn214   2.006       .  S
C209        O225   1.274       .  A
C209        O222   1.276       .  A
C209       C2081   1.483       .  S
O210        C223   1.278       .  A
O210       Cd217   2.093       .  S
O211        C229   1.276       .  A
O211       Cd220   2.072       .  S
O212        C226   1.277       .  A
O212       Cd216   2.077       .  S
O213        C224   1.277       .  A
O213       Cd216   2.090       .  S
Zn214       O225   2.012       .  S
Zn214       O227   2.001       .  S
Zn214       O219   1.928       .  S
O215        C226   1.276       .  A
O215       Cd220   2.073       .  S
Cd216       O218   2.083       .  S
Cd216       O219   2.006       .  S
Cd217       O221   2.068       .  S
Cd217       O230   2.088       .  S
Cd217       O219   2.004       .  S
O218        C228   1.278       .  A
O219       Cd220   1.995       .  S
Cd220       O222   2.078       .  S
O221        C228   1.276       .  A
C223        O227   1.273       .  A
C223       C2129   1.484       .  S
C224       C2177   1.485       .  S
C226       C2644   1.485       .  S
C228       C2116   1.480       .  S
C229        O230   1.278       .  A
C229       C2212   1.488       .  S
O231        C247   1.274       .  A
O231       Zn237   1.998       .  S
C232        O248   1.273       .  A
C232        O245   1.276       .  A
C232       C1985   1.484       .  S
O233        C246   1.276       .  A
O233       Cd240   2.087       .  S
O234        C252   1.276       .  A
O234       Cd243   2.070       .  S
O235        C249   1.277       .  A
O235       Cd239   2.086       .  S
O236        C247   1.278       .  A
O236       Cd239   2.088       .  S
Zn237       O248   2.007       .  S
Zn237       O250   2.009       .  S
Zn237       O242   1.929       .  S
O238        C249   1.276       .  A
O238       Cd243   2.070       .  S
Cd239       O241   2.086       .  S
Cd239       O242   2.011       .  S
Cd240       O244   2.064       .  S
Cd240       O253   2.081       .  S
Cd240       O242   2.001       .  S
O241        C251   1.277       .  A
O242       Cd243   1.996       .  S
Cd243       O245   2.084       .  S
O244        C251   1.275       .  A
C246        O250   1.273       .  A
C246       C2260   1.482       .  S
C247       C2009   1.481       .  S
C249       C2932   1.487       .  S
C251       C2068   1.482       .  S
C252        O253   1.278       .  A
C252       C2033   1.483       .  S
O254        C270   1.274       .  A
O254       Zn260   2.000       .  S
C255        O271   1.276       .  A
C255        O268   1.273       .  A
C255       C1948   1.485       .  S
O256        C269   1.277       .  A
O256       Cd263   2.087       .  S
O257        C275   1.273       .  A
O257       Cd266   2.053       .  S
O258        C272   1.277       .  A
O258       Cd262   2.087       .  S
O259        C270   1.279       .  A
O259       Cd262   2.095       .  S
Zn260       O271   2.037       .  S
Zn260       O273   2.002       .  S
Zn260       O265   1.938       .  S
O261        C272   1.273       .  A
O261       Cd266   2.056       .  S
Cd262       O264   2.097       .  S
Cd262       O265   2.012       .  S
Cd263       O267   2.065       .  S
Cd263       O276   2.079       .  S
Cd263       O265   2.006       .  S
O264        C274   1.279       .  A
O265       Cd266   1.988       .  S
Cd266       O268   2.060       .  S
O267        C274   1.275       .  A
C269        O273   1.273       .  A
C269       C2140   1.483       .  S
C270       C2044   1.482       .  S
C272       C2825   1.483       .  S
C274       C1961   1.488       .  S
C275        O276   1.276       .  A
C275       C2020   1.479       .  S
O277        C293   1.275       .  A
O277       Zn283   2.006       .  S
C278        O294   1.276       .  A
C278        O291   1.275       .  A
C278       C1841   1.486       .  S
O279        C292   1.278       .  A
O279       Cd286   2.089       .  S
O280        C298   1.274       .  A
O280       Cd289   2.058       .  S
O281        C295   1.274       .  A
O281       Cd285   2.064       .  S
O282        C293   1.277       .  A
O282       Cd285   2.081       .  S
Zn283       O294   2.032       .  S
Zn283       O296   2.002       .  S
Zn283       O288   1.930       .  S
O284        C295   1.275       .  A
O284       Cd289   2.061       .  S
Cd285       O287   2.084       .  S
Cd285       O288   2.005       .  S
Cd286       O290   2.068       .  S
Cd286       O299   2.086       .  S
Cd286       O288   2.002       .  S
O287        C297   1.277       .  A
O288       Cd289   1.988       .  S
Cd289       O291   2.069       .  S
O290        C297   1.275       .  A
C292        O296   1.273       .  A
C292       C1913   1.484       .  S
C293       C1876   1.481       .  S
C295       C2321   1.478       .  S
C297       C2057   1.486       .  S
C298        O299   1.278       .  A
C298       C1889   1.484       .  S
O300        C316   1.273       .  A
O300       Zn306   1.994       .  S
C301        O317   1.276       .  A
C301        O314   1.275       .  A
C301       C1804   1.484       .  S
O302        C315   1.276       .  A
O302       Cd309   2.083       .  S
O303        C321   1.276       .  A
O303       Cd312   2.069       .  S
O304        C318   1.277       .  A
O304       Cd308   2.087       .  S
O305        C316   1.278       .  A
O305       Cd308   2.094       .  S
Zn306       O317   2.024       .  S
Zn306       O319   2.014       .  S
Zn306       O311   1.937       .  S
O307        C318   1.275       .  A
O307       Cd312   2.068       .  S
Cd308       O310   2.098       .  S
Cd308       O311   2.014       .  S
Cd309       O313   2.062       .  S
Cd309       O322   2.074       .  S
Cd309       O311   2.000       .  S
O310        C320   1.279       .  A
O311       Cd312   1.995       .  S
Cd312       O314   2.071       .  S
O313        C320   1.275       .  A
C315        O319   1.273       .  A
C315       C1828   1.486       .  S
C316       C1900   1.476       .  S
C318       C2284   1.487       .  S
C320       C1972   1.484       .  S
C321        O322   1.276       .  A
C321       C1865   1.482       .  S
O323        C339   1.275       .  A
O323       Zn329   2.010       .  S
C324        O340   1.276       .  A
C324        O337   1.276       .  A
C324       C1732   1.485       .  S
O325        C338   1.277       .  A
O325       Cd332   2.088       .  S
O326        C344   1.275       .  A
O326       Cd335   2.066       .  S
O327        C341   1.276       .  A
O327       Cd331   2.077       .  S
O328        C339   1.276       .  A
O328       Cd331   2.078       .  S
Zn329       O340   2.024       .  S
Zn329       O342   2.009       .  S
Zn329       O334   1.929       .  S
O330        C341   1.276       .  A
O330       Cd335   2.072       .  S
Cd331       O333   2.081       .  S
Cd331       O334   2.003       .  S
Cd332       O336   2.062       .  S
Cd332       O345   2.080       .  S
Cd332       O334   2.002       .  S
O333        C343   1.277       .  A
O334       Cd335   1.992       .  S
Cd335       O337   2.073       .  S
O336        C343   1.275       .  A
C338        O342   1.274       .  A
C338       C1924   1.486       .  S
C339       C1769   1.482       .  S
C341       C2489   1.485       .  S
C343       C2105   1.484       .  S
C344        O345   1.277       .  A
C344       C1756   1.483       .  S
O346        C362   1.273       .  A
O346       Zn352   1.993       .  S
C347        O363   1.276       .  A
C347        O360   1.276       .  A
C347       C1697   1.483       .  S
O348        C361   1.274       .  A
O348       Cd355   2.074       .  S
O349        C367   1.276       .  A
O349       Cd358   2.078   1_554  S
O350        C364   1.279       .  A
O350       Cd354   2.100       .  S
O351        C362   1.279       .  A
O351       Cd354   2.098       .  S
Zn352       O363   2.023       .  S
Zn352       O365   2.027       .  S
Zn352       O357   1.933       .  S
O353        C364   1.276       .  A
O353       Cd358   2.067       .  S
Cd354       O356   2.098       .  S
Cd354       O357   2.020       .  S
Cd355       O359   2.048       .  S
Cd355       O368   2.055   1_556  S
Cd355       O357   1.991       .  S
O356        C366   1.279       .  A
O357       Cd358   1.995       .  S
Cd358       O360   2.071       .  S
O359        C366   1.274       .  A
C361        O365   1.275       .  A
C361       C1817   1.485       .  S
C362       C1745   1.482       .  S
C364       C2417   1.490       .  S
C366       C2236   1.483       .  S
C367        O368   1.273       .  A
C367       C1780   1.479       .  S
O369        C385   1.274       .  A
O369       Zn375   2.004       .  S
C370        O386   1.275       .  A
C370        O383   1.275       .  A
C370       C2524   1.483       .  S
O371        C384   1.277       .  A
O371       Cd378   2.087       .  S
O372        C390   1.275       .  A
O372       Cd381   2.064       .  S
O373        C387   1.278       .  A
O373       Cd377   2.089       .  S
O374        C385   1.279       .  A
O374       Cd377   2.097       .  S
Zn375       O386   2.016       .  S
Zn375       O388   2.009       .  S
Zn375       O380   1.926       .  S
O376        C387   1.274       .  A
O376       Cd381   2.056       .  S
Cd377       O379   2.092       .  S
Cd377       O380   2.011       .  S
Cd378       O382   2.061       .  S
Cd378       O391   2.079       .  S
Cd378       O380   1.999       .  S
O379        C389   1.279       .  A
O380       Cd381   1.990       .  S
Cd381       O383   2.071       .  S
O382        C389   1.276       .  A
C384        O388   1.274       .  A
C384       C1649   1.483       .  S
C385       C1625   1.482       .  S
C387       C1577   1.484       .  S
C389       C1673   1.485       .  S
C390        O391   1.276       .  A
C390       C1601   1.480       .  S
O392        C408   1.273       .  A
O392       Zn398   1.999       .  S
C393        O409   1.275       .  A
C393        O406   1.276       .  A
C393       C2452   1.484       .  S
O394        C407   1.278       .  A
O394       Cd401   2.095       .  S
O395        C413   1.276       .  A
O395       Cd404   2.069   1_554  S
O396        C410   1.276       .  A
O396       Cd400   2.073       .  S
O397        C408   1.277       .  A
O397       Cd400   2.087       .  S
Zn398       O409   2.014       .  S
Zn398       O411   2.004       .  S
Zn398       O403   1.929       .  S
O399        C410   1.276       .  A
O399       Cd404   2.077       .  S
Cd400       O402   2.081       .  S
Cd400       O403   2.008       .  S
Cd401       O405   2.062       .  S
Cd401       O414   2.085   1_556  S
Cd401       O403   2.005       .  S
O402        C412   1.277       .  A
O403       Cd404   1.999       .  S
Cd404       O406   2.078       .  S
O405        C412   1.275       .  A
C407        O411   1.273       .  A
C407       C1540   1.487       .  S
C408       C1612   1.482       .  S
C410       C1505   1.485       .  S
C412       C1553   1.480       .  S
C413        O414   1.278       .  A
C413       C1636   1.486       .  S
O415        C431   1.274       .  A
O415       Zn421   2.009       .  S
C416        O432   1.277       .  A
C416        O429   1.277       .  A
C416       C2681   1.488       .  S
O417        C430   1.276       .  A
O417       Cd424   2.083       .  S
O418        C436   1.277       .  A
O418       Cd427   2.074   1_556  S
O419        C433   1.275       .  A
O419       Cd423   2.069       .  S
O420        C431   1.276       .  A
O420       Cd423   2.072       .  S
Zn421       O432   2.030       .  S
Zn421       O434   2.003       .  S
Zn421       O426   1.933       .  S
O422        C433   1.278       .  A
O422       Cd427   2.084       .  S
Cd423       O425   2.082       .  S
Cd423       O426   2.000       .  S
Cd424       O428   2.066       .  S
Cd424       O437   2.075   1_554  S
Cd424       O426   2.003       .  S
O425        C435   1.277       .  A
O426       Cd427   1.994       .  S
Cd427       O429   2.082       .  S
O428        C435   1.275       .  A
C430        O434   1.273       .  A
C430       C1481   1.480       .  S
C431       C1468   1.478       .  S
C433       C1409   1.486       .  S
C435       C1564   1.485       .  S
C436        O437   1.277       .  A
C436       C1444   1.484       .  S
O438        C454   1.274       .  A
O438       Zn444   2.001       .  S
C439        O455   1.275       .  A
C439        O452   1.276       .  A
C439       C2620   1.485       .  S
O440        C453   1.275       .  A
O440       Cd447   2.076       .  S
O441        C459   1.276       .  A
O441       Cd450   2.072       .  S
O442        C456   1.277       .  A
O442       Cd446   2.079       .  S
O443        C454   1.278       .  A
O443       Cd446   2.096       .  S
Zn444       O455   2.019       .  S
Zn444       O457   2.020       .  S
Zn444       O449   1.927       .  S
O445        C456   1.276       .  A
O445       Cd450   2.071       .  S
Cd446       O448   2.092       .  S
Cd446       O449   2.010       .  S
Cd447       O451   2.059       .  S
Cd447       O460   2.065       .  S
Cd447       O449   1.994       .  S
O448        C458   1.278       .  A
O449       Cd450   1.999       .  S
Cd450       O452   2.080       .  S
O451        C458   1.274       .  A
C453        O457   1.274       .  A
C453       C1385   1.484       .  S
C454       C1433   1.481       .  S
C456       C1361   1.485       .  S
C458       C1684   1.481       .  S
C459        O460   1.275       .  A
C459       C1457   1.480       .  S
O461        C477   1.274       .  A
O461       Zn467   2.003       .  S
C462        O478   1.275       .  A
C462        O475   1.277       .  A
C462       C2908   1.489       .  S
O463        C476   1.278       .  A
O463       Cd470   2.090       .  S
O464        C482   1.277       .  A
O464       Cd473   2.072       .  S
O465        C479   1.275       .  A
O465       Cd469   2.063       .  S
O466        C477   1.277       .  A
O466       Cd469   2.084       .  S
Zn467       O478   2.028       .  S
Zn467       O480   1.992       .  S
Zn467       O472   1.926       .  S
O468        C479   1.277       .  A
O468       Cd473   2.077       .  S
Cd469       O471   2.081       .  S
Cd469       O472   2.001       .  S
Cd470       O474   2.073       .  S
Cd470       O483   2.082       .  S
Cd470       O472   2.002       .  S
O471        C481   1.277       .  A
O472       Cd473   1.989       .  S
Cd473       O475   2.084       .  S
O474        C481   1.275       .  A
C476        O480   1.273       .  A
C476       C1492   1.482       .  S
C477       C1289   1.482       .  S
C479       C1265   1.482       .  S
C481       C1337   1.487       .  S
C482        O483   1.278       .  A
C482       C1324   1.486       .  S
O484        C500   1.274       .  A
O484       Zn490   2.006       .  S
C485        O501   1.274       .  A
C485        O498   1.274       .  A
C485       C2812   1.483       .  S
O486        C499   1.277       .  A
O486       Cd493   2.080       .  S
O487        C505   1.274       .  A
O487       Cd496   2.059       .  S
O488        C502   1.277       .  A
O488       Cd492   2.079       .  S
O489        C500   1.279       .  A
O489       Cd492   2.100       .  S
Zn490       O501   2.020       .  S
Zn490       O503   2.018       .  S
Zn490       O495   1.934       .  S
O491        C502   1.275       .  A
O491       Cd496   2.061       .  S
Cd492       O494   2.096       .  S
Cd492       O495   2.012       .  S
Cd493       O497   2.070       .  S
Cd493       O506   2.076       .  S
Cd493       O495   1.998       .  S
O494        C504   1.279       .  A
O495       Cd496   1.996       .  S
Cd496       O498   2.071       .  S
O497        C504   1.276       .  A
C499        O503   1.275       .  A
C499       C1396   1.485       .  S
C500       C1313   1.480       .  S
C502       C1228   1.482       .  S
C504       C1241   1.489       .  S
C505        O506   1.276       .  A
C505       C1300   1.479       .  S
O507        C523   1.275       .  A
O507       Zn513   2.010       .  S
C508        O524   1.276       .  A
C508        O521   1.277       .  A
C508       C2345   1.487       .  S
O509        C522   1.276       .  A
O509       Cd516   2.080       .  S
O510        C528   1.276       .  A
O510       Cd519   2.073       .  S
O511        C525   1.276       .  A
O511       Cd515   2.073       .  S
O512        C523   1.278       .  A
O512       Cd515   2.087       .  S
Zn513       O524   2.025       .  S
Zn513       O526   2.017       .  S
Zn513       O518   1.932       .  S
O514        C525   1.276       .  A
O514       Cd519   2.072       .  S
Cd515       O517   2.091       .  S
Cd515       O518   2.006       .  S
Cd516       O520   2.067       .  S
Cd516       O529   2.072       .  S
Cd516       O518   1.999       .  S
O517        C527   1.278       .  A
O518       Cd519   1.998       .  S
Cd519       O521   2.084       .  S
O520        C527   1.275       .  A
C522        O526   1.275       .  A
C522       C1660   1.486       .  S
C523       C1169   1.485       .  S
C525       C1156   1.483       .  S
C527       C1348   1.484       .  S
C528        O529   1.276       .  A
C528       C1204   1.482       .  S
O530        C546   1.274       .  A
O530       Zn536   1.999       .  S
C531        O547   1.274       .  A
C531        O544   1.276       .  A
C531       C2308   1.488       .  S
O532        C545   1.278       .  A
O532       Cd539   2.096       .  S
O533        C551   1.276       .  A
O533       Cd542   2.067       .  S
O534        C548   1.275       .  A
O534       Cd538   2.071       .  S
O535        C546   1.278       .  A
O535       Cd538   2.090       .  S
Zn536       O547   2.020       .  S
Zn536       O549   1.998       .  S
Zn536       O541   1.927       .  S
O537        C548   1.277       .  A
O537       Cd542   2.073       .  S
Cd538       O540   2.091       .  S
Cd538       O541   2.011       .  S
Cd539       O543   2.070       .  S
Cd539       O552   2.084       .  S
Cd539       O541   2.006       .  S
O540        C550   1.278       .  A
O541       Cd542   1.998       .  S
Cd542       O544   2.085       .  S
O543        C550   1.276       .  A
C545        O549   1.272       .  A
C545       C1529   1.486       .  S
C546       C1193   1.483       .  S
C548       C1132   1.482       .  S
C550       C1252   1.486       .  S
C551        O552   1.278       .  A
C551       C1180   1.482       .  S
O553        C569   1.276       .  A
O553       Zn559   2.029       .  S
C554        O570   1.274       .  A
C554        O567   1.278       .  A
C554       C1049   1.480       .  S
O555        C568   1.276       .  A
O555       Cd562   2.075       .  S
O556        C574   1.279       .  A
O556       Cd565   2.096       .  S
O557        C571   1.274       .  A
O557       Cd561   2.060       .  S
O558        C569   1.274       .  A
O558       Cd561   2.068       .  S
Zn559       O570   1.998       .  S
Zn559       O572   2.029       .  S
Zn559       O564   1.940       .  S
O560        C571   1.278       .  A
O560       Cd565   2.095       .  S
Cd561       O563   2.063   1_554  S
Cd561       O564   1.991       .  S
Cd562       O566   2.079   1_554  S
Cd562       O575   2.063       .  S
Cd562       O564   1.997       .  S
O563        C573   1.275       .  A
O564       Cd565   2.017       .  S
Cd565       O567   2.093       .  S
O566        C573   1.276       .  A
C568        O572   1.276       .  A
C568       C1073   1.485       .  S
C569       C2153   1.485       .  S
C571       C1420   1.487       .  S
C573       C1036   1.481       .  S
C574        O575   1.275       .  A
C574       C1097   1.485       .  S
O576        C592   1.275       .  A
O576       Zn582   2.022       .  S
C577        O593   1.273       .  A
C577        O590   1.278       .  A
C577       C1025   1.483       .  S
O578        C591   1.277       .  A
O578       Cd585   2.084       .  S
O579        C597   1.278       .  A
O579       Cd588   2.093       .  S
O580        C594   1.275       .  A
O580       Cd584   2.067       .  S
O581        C592   1.275       .  A
O581       Cd584   2.070       .  S
Zn582       O593   1.999       .  S
Zn582       O595   2.002       .  S
Zn582       O587   1.933       .  S
O583        C594   1.277       .  A
O583       Cd588   2.084       .  S
Cd584       O586   2.061       .  S
Cd584       O587   1.989       .  S
Cd585       O589   2.085       .  S
Cd585       O598   2.061       .  S
Cd585       O587   2.003       .  S
O586        C596   1.275       .  A
O587       Cd588   2.008       .  S
Cd588       O590   2.088       .  S
O589        C596   1.278       .  A
C591        O595   1.272       .  A
C591        C977   1.483       .  S
C592       C2092   1.484       .  S
C594       C1372   1.485       .  S
C596       C1060   1.484       .  S
C597        O598   1.275       .  A
C597       C1001   1.484       .  S
O599        C615   1.275       .  A
O599       Zn605   2.022       .  S
C600        O616   1.273       .  A
C600        O613   1.277       .  A
C600        C940   1.480       .  S
O601        C614   1.276       .  A
O601       Cd608   2.077       .  S
O602        C620   1.277       .  A
O602       Cd611   2.083       .  S
O603        C617   1.276       .  A
O603       Cd607   2.071       .  S
O604        C615   1.276       .  A
O604       Cd607   2.076       .  S
Zn605       O616   2.000       .  S
Zn605       O618   2.003       .  S
Zn605       O610   1.933       .  S
O606        C617   1.276       .  A
O606       Cd611   2.073       .  S
Cd607       O609   2.073       .  S
Cd607       O610   1.996       .  S
Cd608       O612   2.072       .  S
Cd608       O621   2.072       .  S
Cd608       O610   1.998       .  S
O609        C619   1.276       .  A
O610       Cd611   2.001       .  S
Cd611       O613   2.084       .  S
O612        C619   1.277       .  A
C614        O618   1.273       .  A
C614        C953   1.481       .  S
C615       C1721   1.485       .  S
C617       C1588   1.483       .  S
C619        C916   1.481       .  S
C620        O621   1.275       .  A
C620       C1012   1.486       .  S
O622        C638   1.276       .  A
O622       Zn628   2.030       .  S
C623        O639   1.274       .  A
C623        O636   1.278       .  A
C623        C905   1.482       .  S
O624        C637   1.277       .  A
O624       Cd631   2.083       .  S
O625        C643   1.278       .  A
O625       Cd634   2.083       .  S
O626        C640   1.274       .  A
O626       Cd630   2.064       .  S
O627        C638   1.275       .  A
O627       Cd630   2.069       .  S
Zn628       O639   2.004       .  S
Zn628       O641   2.013       .  S
Zn628       O633   1.934       .  S
O629        C640   1.276       .  A
O629       Cd634   2.080       .  S
Cd630       O632   2.055   1_556  S
Cd630       O633   1.991       .  S
Cd631       O635   2.080   1_556  S
Cd631       O644   2.068       .  S
Cd631       O633   2.006       .  S
O632        C642   1.274       .  A
O633       Cd634   2.008       .  S
Cd634       O636   2.087       .  S
O635        C642   1.276       .  A
C637        O641   1.274       .  A
C637        C892   1.484       .  S
C638       C1708   1.485       .  S
C640       C1516   1.484       .  S
C642        C929   1.479       .  S
C643        O644   1.275       .  A
C643       C1108   1.485       .  S
O645        C661   1.274       .  A
O645       Zn651   2.016       .  S
C646        O662   1.272       .  A
C646        O659   1.278       .  A
C646        C809   1.482       .  S
O647        C660   1.276       .  A
O647       Cd654   2.082       .  S
O648        C666   1.277       .  A
O648       Cd657   2.089       .  S
O649        C663   1.275       .  A
O649       Cd653   2.062       .  S
O650        C661   1.275       .  A
O650       Cd653   2.074       .  S
Zn651       O662   1.993       .  S
Zn651       O664   1.996       .  S
Zn651       O656   1.930       .  S
O652        C663   1.276       .  A
O652       Cd657   2.075       .  S
Cd653       O655   2.061       .  S
Cd653       O656   1.993       .  S
Cd654       O658   2.086       .  S
Cd654       O667   2.069       .  S
Cd654       O656   2.005       .  S
O655        C665   1.275       .  A
O656       Cd657   2.012       .  S
Cd657       O659   2.094       .  S
O658        C665   1.278       .  A
C660        O664   1.273       .  A
C660        C964   1.480       .  S
C661       C1852   1.484       .  S
C663       C1145   1.481       .  S
C665        C844   1.483       .  S
C666        O667   1.275       .  A
C666        C857   1.480       .  S
O668        C684   1.275       .  A
O668       Zn674   2.023       .  S
C669        O685   1.274       .  A
C669        O682   1.277       .  A
C669        C833   1.481       .  S
O670        C683   1.278       .  A
O670       Cd677   2.089       .  S
O671        C689   1.277       .  A
O671       Cd680   2.084       .  S
O672        C686   1.275       .  A
O672       Cd676   2.063       .  S
O673        C684   1.275       .  A
O673       Cd676   2.073       .  S
Zn674       O685   2.006       .  S
Zn674       O687   2.005       .  S
Zn674       O679   1.934       .  S
O675        C686   1.276       .  A
O675       Cd680   2.075       .  S
Cd676       O678   2.059       .  S
Cd676       O679   1.995       .  S
Cd677       O681   2.078       .  S
Cd677       O690   2.075       .  S
Cd677       O679   2.006       .  S
O678        C688   1.274       .  A
O679       Cd680   2.007       .  S
Cd680       O682   2.080       .  S
O681        C688   1.277       .  A
C683        O687   1.274       .  A
C683        C881   1.485       .  S
C684       C1793   1.485       .  S
C686       C1121   1.481       .  S
C688        C820   1.480       .  S
C689        O690   1.276       .  A
C689        C785   1.488       .  S
O691        C707   1.276       .  A
O691       Zn697   2.035       .  S
C692        O708   1.275       .  A
C692        O705   1.279       .  A
C692        C748   1.486       .  S
O693        C706   1.279       .  A
O693       Cd700   2.098       .  S
O694        C712   1.279       .  A
O694       Cd703   2.090       .  S
O695        C709   1.274       .  A
O695       Cd699   2.055       .  S
O696        C707   1.274       .  A
O696       Cd699   2.066       .  S
Zn697       O708   2.009       .  S
Zn697       O710   2.011       .  S
Zn697       O702   1.935       .  S
O698        C709   1.277       .  A
O698       Cd703   2.089       .  S
Cd699       O701   2.059       .  S
Cd699       O702   1.987       .  S
Cd700       O704   2.082       .  S
Cd700       O713   2.068       .  S
Cd700       O702   2.007       .  S
O701        C711   1.275       .  A
O702       Cd703   2.011       .  S
Cd703       O705   2.092       .  S
O704        C711   1.277       .  A
C706        O710   1.274       .  A
C706       C1084   1.488       .  S
C707       C1996   1.485       .  S
C709       C1276   1.484       .  S
C711        C772   1.481       .  S
C712        O713   1.275       .  A
C712        C868   1.488       .  S
O714        C730   1.273       .  A
O714       Zn720   2.017       .  S
C715        O731   1.273       .  A
C715        O728   1.276       .  A
C715        C761   1.482       .  S
O716        C729   1.278       .  A
O716       Cd723   2.097       .  S
O717        C735   1.277       .  A
O717       Cd726   2.084       .  S
O718        C732   1.276       .  A
O718       Cd722   2.072       .  S
O719        C730   1.275       .  A
O719       Cd722   2.080       .  S
Zn720       O731   1.998       .  S
Zn720       O733   1.986       .  S
Zn720       O725   1.925       .  S
O721        C732   1.276       .  A
O721       Cd726   2.068       .  S
Cd722       O724   2.068       .  S
Cd722       O725   1.995       .  S
Cd723       O727   2.091       .  S
Cd723       O736   2.074       .  S
Cd723       O725   2.008       .  S
O724        C734   1.276       .  A
O725       Cd726   2.007       .  S
Cd726       O728   2.085       .  S
O727        C734   1.279       .  A
C729        O733   1.272       .  A
C729        C988   1.483       .  S
C730       C1937   1.486       .  S
C732       C1217   1.482       .  S
C734        C737   1.484       .  S
C735        O736   1.276       .  A
C735        C796   1.486       .  S
C737        C738   1.406       .  A
C737        C742   1.407       .  A
C738        C739   1.397       .  A
C738        H751   1.083       .  S
C739        C740   1.402       .  A
C739        H752   1.083       .  S
C740        C741   1.408       .  A
C740        C743   1.486       .  S
C741        C742   1.402       .  A
C741        H753   1.083       .  S
C742        H754   1.083       .  S
C743        C744   1.348       .  D
C743        H755   1.085       .  S
C744        C745   1.489       .  S
C744        H756   1.085       .  S
C745        C746   1.405   1_556  A
C745        C750   1.406   1_556  A
C746        C747   1.402       .  A
C746        H757   1.082   1_554  S
C747        C748   1.406       .  A
C747        H758   1.083       .  S
C748        C749   1.407       .  A
C749        C750   1.397       .  A
C749        H759   1.082       .  S
C750        H760   1.082   1_554  S
C761        C762   1.407       .  A
C761        C766   1.405       .  A
C762        C763   1.403       .  A
C762        H775   1.083       .  S
C763        C764   1.405       .  A
C763        H776   1.083       .  S
C764        C765   1.405       .  A
C764        C767   1.485       .  S
C765        C766   1.393       .  A
C765        H777   1.082       .  S
C766        H778   1.083       .  S
C767        C768   1.347       .  D
C767        H779   1.086       .  S
C768        C769   1.482       .  S
C768        H780   1.086       .  S
C769        C770   1.402       .  A
C769        C774   1.407       .  A
C770        C771   1.395       .  A
C770        H781   1.083       .  S
C771        C772   1.405       .  A
C771        H782   1.083       .  S
C772        C773   1.407       .  A
C773        C774   1.401       .  A
C773        H783   1.083       .  S
C774        H784   1.082       .  S
C785        C786   1.407       .  A
C785        C790   1.408       .  A
C786        C787   1.401       .  A
C786        H799   1.083       .  S
C787        C788   1.404       .  A
C787        H800   1.083       .  S
C788        C789   1.407       .  A
C788        C791   1.489       .  S
C789        C790   1.400       .  A
C789        H801   1.082       .  S
C790        H802   1.083       .  S
C791        C792   1.347       .  D
C791        H803   1.087       .  S
C792        C793   1.486       .  S
C792        H804   1.086       .  S
C793        C794   1.402       .  A
C793        C798   1.407       .  A
C794        C795   1.398       .  A
C794        H805   1.084       .  S
C795        C796   1.407       .  A
C795        H806   1.083       .  S
C796        C797   1.407       .  A
C797        C798   1.402       .  A
C797        H807   1.083       .  S
C798        H808   1.082       .  S
C809        C810   1.405       .  A
C809        C814   1.407       .  A
C810        C811   1.401       .  A
C810        H823   1.083       .  S
C811        C812   1.405       .  A
C811        H824   1.083       .  S
C812        C813   1.405       .  A
C812        C815   1.485       .  S
C813        C814   1.395       .  A
C813        H825   1.082       .  S
C814        H826   1.083       .  S
C815        C816   1.347       .  D
C815        H827   1.086       .  S
C816        C817   1.482       .  S
C816        H828   1.086       .  S
C817        C818   1.402       .  A
C817        C822   1.407       .  A
C818        C819   1.397       .  A
C818        H829   1.083       .  S
C819        C820   1.406       .  A
C819        H830   1.083       .  S
C820        C821   1.406       .  A
C821        C822   1.399       .  A
C821        H831   1.083       .  S
C822        H832   1.082       .  S
C833        C834   1.405       .  A
C833        C838   1.406       .  A
C834        C835   1.400       .  A
C834        H847   1.083       .  S
C835        C836   1.404   1_556  A
C835        H848   1.083   1_556  S
C836        C837   1.406   1_554  A
C836        C839   1.485       .  S
C837        C838   1.396       .  A
C837        H849   1.082   1_556  S
C838        H850   1.083       .  S
C839        C840   1.347       .  D
C839        H851   1.086       .  S
C840        C841   1.483       .  S
C840        H852   1.086       .  S
C841        C842   1.401       .  A
C841        C846   1.407       .  A
C842        C843   1.397       .  A
C842        H853   1.084       .  S
C843        C844   1.407       .  A
C843        H854   1.083       .  S
C844        C845   1.406       .  A
C845        C846   1.400       .  A
C845        H855   1.083       .  S
C846        H856   1.082       .  S
C857        C858   1.404       .  A
C857        C862   1.405       .  A
C858        C859   1.397       .  A
C858        H871   1.083       .  S
C859        C860   1.404       .  A
C859        H872   1.084       .  S
C860        C861   1.410       .  A
C860        C863   1.490       .  S
C861        C862   1.403       .  A
C861        H873   1.081       .  S
C862        H874   1.083       .  S
C863        C864   1.349       .  D
C863        H875   1.085       .  S
C864        C865   1.493       .  S
C864        H876   1.085       .  S
C865        C866   1.405       .  A
C865        C870   1.408       .  A
C866        C867   1.401       .  A
C866        H877   1.083       .  S
C867        C868   1.406       .  A
C867        H878   1.083       .  S
C868        C869   1.408       .  A
C869        C870   1.399       .  A
C869        H879   1.083       .  S
C870        H880   1.081       .  S
C881        C882   1.406       .  A
C881        C886   1.407       .  A
C882        C883   1.402       .  A
C882        H895   1.083       .  S
C883        C884   1.405       .  A
C883        H896   1.083       .  S
C884        C885   1.405       .  A
C884        C887   1.487       .  S
C885        C886   1.396       .  A
C885        H897   1.082       .  S
C886        H898   1.083       .  S
C887        C888   1.349       .  D
C887        H899   1.086       .  S
C888        C889   1.486       .  S
C888        H900   1.086       .  S
C889        C890   1.405       .  A
C889        C894   1.405       .  A
C890        C891   1.400       .  A
C890        H901   1.083       .  S
C891        C892   1.405       .  A
C891        H902   1.083       .  S
C892        C893   1.407       .  A
C893        C894   1.398       .  A
C893        H903   1.083       .  S
C894        H904   1.082       .  S
C905        C906   1.406       .  A
C905        C910   1.406       .  A
C906        C907   1.402       .  A
C906        H919   1.083       .  S
C907        C908   1.405       .  A
C907        H920   1.083       .  S
C908        C909   1.405       .  A
C908        C911   1.486       .  S
C909        C910   1.395       .  A
C909        H921   1.082       .  S
C910        H922   1.083       .  S
C911        C912   1.348       .  D
C911        H923   1.086       .  S
C912        C913   1.484       .  S
C912        H924   1.086       .  S
C913        C914   1.403       .  A
C913        C918   1.407       .  A
C914        C915   1.398       .  A
C914        H925   1.083       .  S
C915        C916   1.405       .  A
C915        H926   1.083       .  S
C916        C917   1.406       .  A
C917        C918   1.399       .  A
C917        H927   1.083       .  S
C918        H928   1.082       .  S
C929        C930   1.406       .  A
C929        C934   1.406       .  A
C930        C931   1.393       .  A
C930        H943   1.083       .  S
C931        C932   1.400       .  A
C931        H944   1.084       .  S
C932        C933   1.408       .  A
C932        C935   1.482       .  S
C933        C934   1.401       .  A
C933        H945   1.082       .  S
C934        H946   1.083       .  S
C935        C936   1.343       .  D
C935        H947   1.087       .  S
C936        C937   1.482       .  S
C936        H948   1.086       .  S
C937        C938   1.400       .  A
C937        C942   1.408       .  A
C938        C939   1.395       .  A
C938        H949   1.084       .  S
C939        C940   1.407       .  A
C939        H950   1.083       .  S
C940        C941   1.405       .  A
C941        C942   1.400       .  A
C941        H951   1.083       .  S
C942        H952   1.083       .  S
C953        C954   1.405       .  A
C953        C958   1.407       .  A
C954        C955   1.399       .  A
C954        H967   1.083       .  S
C955        C956   1.403       .  A
C955        H968   1.083       .  S
C956        C957   1.405       .  A
C956        C959   1.482       .  S
C957        C958   1.395       .  A
C957        H969   1.082       .  S
C958        H970   1.083       .  S
C959        C960   1.347       .  D
C959        H971   1.086       .  S
C960        C961   1.482       .  S
C960        H972   1.086       .  S
C961        C962   1.404       .  A
C961        C966   1.404       .  A
C962        C963   1.401       .  A
C962        H973   1.083       .  S
C963        C964   1.405       .  A
C963        H974   1.083       .  S
C964        C965   1.407       .  A
C965        C966   1.394       .  A
C965        H975   1.083       .  S
C966        H976   1.082       .  S
C977        C978   1.408       .  A
C977        C982   1.405       .  A
C978        C979   1.397       .  A
C978        H991   1.083       .  S
C979        C980   1.401       .  A
C979        H992   1.083       .  S
C980        C981   1.409       .  A
C980        C983   1.486       .  S
C981        C982   1.400       .  A
C981        H993   1.082       .  S
C982        H994   1.083       .  S
C983        C984   1.344       .  D
C983        H995   1.086       .  S
C984        C985   1.483       .  S
C984        H996   1.086       .  S
C985        C986   1.399       .  A
C985        C990   1.410       .  A
C986        C987   1.392       .  A
C986        H997   1.083       .  S
C987        C988   1.407       .  A
C987        H998   1.083       .  S
C988        C989   1.406       .  A
C989        C990   1.404       .  A
C989        H999   1.083       .  S
C990       H1000   1.082       .  S
C1001      C1002   1.407       .  A
C1001      C1006   1.406       .  A
C1002      C1003   1.397       .  A
C1002      H1015   1.083       .  S
C1003      C1004   1.402       .  A
C1003      H1016   1.084       .  S
C1004      C1005   1.409       .  A
C1004      C1007   1.488       .  S
C1005      C1006   1.403       .  A
C1005      H1017   1.082       .  S
C1006      H1018   1.083       .  S
C1007      C1008   1.348       .  D
C1007      H1019   1.085       .  S
C1008      C1009   1.491       .  S
C1008      H1020   1.086       .  S
C1009      C1010   1.404       .  A
C1009      C1014   1.408       .  A
C1010      C1011   1.400       .  A
C1010      H1021   1.083       .  S
C1011      C1012   1.406       .  A
C1011      H1022   1.083       .  S
C1012      C1013   1.407       .  A
C1013      C1014   1.400       .  A
C1013      H1023   1.083       .  S
C1014      H1024   1.081       .  S
C1025      C1026   1.405       .  A
C1025      C1030   1.408       .  A
C1026      C1027   1.401       .  A
C1026      H1039   1.083       .  S
C1027      C1028   1.404       .  A
C1027      H1040   1.083       .  S
C1028      C1029   1.404       .  A
C1028      C1031   1.482       .  S
C1029      C1030   1.396       .  A
C1029      H1041   1.083       .  S
C1030      H1042   1.083       .  S
C1031      C1032   1.346       .  D
C1031      H1043   1.086       .  S
C1032      C1033   1.482       .  S
C1032      H1044   1.086       .  S
C1033      C1034   1.403       .  A
C1033      C1038   1.405       .  A
C1034      C1035   1.400       .  A
C1034      H1045   1.083       .  S
C1035      C1036   1.406       .  A
C1035      H1046   1.083       .  S
C1036      C1037   1.406       .  A
C1037      C1038   1.396       .  A
C1037      H1047   1.083       .  S
C1038      H1048   1.083       .  S
C1049      C1050   1.406       .  A
C1049      C1054   1.405       .  A
C1050      C1051   1.394       .  A
C1050      H1063   1.083       .  S
C1051      C1052   1.400       .  A
C1051      H1064   1.084       .  S
C1052      C1053   1.408       .  A
C1052      C1055   1.482       .  S
C1053      C1054   1.402       .  A
C1053      H1065   1.083       .  S
C1054      H1066   1.083       .  S
C1055      C1056   1.346       .  D
C1055      H1067   1.086       .  S
C1056      C1057   1.486       .  S
C1056      H1068   1.086       .  S
C1057      C1058   1.404       .  A
C1057      C1062   1.406       .  A
C1058      C1059   1.401       .  A
C1058      H1069   1.083       .  S
C1059      C1060   1.407       .  A
C1059      H1070   1.083       .  S
C1060      C1061   1.406       .  A
C1061      C1062   1.395       .  A
C1061      H1071   1.083       .  S
C1062      H1072   1.082       .  S
C1073      C1074   1.406       .  A
C1073      C1078   1.407       .  A
C1074      C1075   1.399       .  A
C1074      H1087   1.083       .  S
C1075      C1076   1.404       .  A
C1075      H1088   1.083       .  S
C1076      C1077   1.407       .  A
C1076      C1079   1.488       .  S
C1077      C1078   1.401       .  A
C1077      H1089   1.082       .  S
C1078      H1090   1.083       .  S
C1079      C1080   1.350       .  D
C1079      H1091   1.086       .  S
C1080      C1081   1.491       .  S
C1080      H1092   1.086       .  S
C1081      C1082   1.406       .  A
C1081      C1086   1.406       .  A
C1082      C1083   1.404       .  A
C1082      H1093   1.083       .  S
C1083      C1084   1.406       .  A
C1083      H1094   1.083       .  S
C1084      C1085   1.408       .  A
C1085      C1086   1.397       .  A
C1085      H1095   1.083       .  S
C1086      H1096   1.082       .  S
C1097      C1098   1.407       .  A
C1097      C1102   1.406       .  A
C1098      C1099   1.397       .  A
C1098      H1111   1.083       .  S
C1099      C1100   1.401       .  A
C1099      H1112   1.084       .  S
C1100      C1101   1.408       .  A
C1100      C1103   1.486       .  S
C1101      C1102   1.403       .  A
C1101      H1113   1.082       .  S
C1102      H1114   1.083       .  S
C1103      C1104   1.348       .  D
C1103      H1115   1.085       .  S
C1104      C1105   1.490   1_554  S
C1104      H1116   1.086       .  S
C1105      C1106   1.404       .  A
C1105      C1110   1.407       .  A
C1106      C1107   1.400       .  A
C1106      H1117   1.083       .  S
C1107      C1108   1.406       .  A
C1107      H1118   1.083       .  S
C1108      C1109   1.407       .  A
C1109      C1110   1.399       .  A
C1109      H1119   1.083       .  S
C1110      H1120   1.081   1_556  S
C1121      C1122   1.404       .  A
C1121      C1126   1.406       .  A
C1122      C1123   1.395       .  A
C1122      H1135   1.083       .  S
C1123      C1124   1.403       .  A
C1123      H1136   1.084       .  S
C1124      C1125   1.409       .  A
C1124      C1127   1.486       .  S
C1125      C1126   1.400       .  A
C1125      H1137   1.080       .  S
C1126      H1138   1.083       .  S
C1127      C1128   1.347       .  D
C1127      H1139   1.086       .  S
C1128      C1129   1.485       .  S
C1128      H1140   1.084       .  S
C1129      C1130   1.403       .  A
C1129      C1134   1.407       .  A
C1130      C1131   1.399       .  A
C1130      H1141   1.084       .  S
C1131      C1132   1.407       .  A
C1131      H1142   1.083       .  S
C1132      C1133   1.405       .  A
C1133      C1134   1.396       .  A
C1133      H1143   1.083       .  S
C1134      H1144   1.081       .  S
C1145      C1146   1.405       .  A
C1145      C1150   1.406       .  A
C1146      C1147   1.395       .  A
C1146      H1159   1.083       .  S
C1147      C1148   1.403       .  A
C1147      H1160   1.084       .  S
C1148      C1149   1.409       .  A
C1148      C1151   1.486       .  S
C1149      C1150   1.400       .  A
C1149      H1161   1.080       .  S
C1150      H1162   1.083       .  S
C1151      C1152   1.347       .  D
C1151      H1163   1.084       .  S
C1152      C1153   1.489       .  S
C1152      H1164   1.084       .  S
C1153      C1154   1.404       .  A
C1153      C1158   1.409       .  A
C1154      C1155   1.399       .  A
C1154      H1165   1.084       .  S
C1155      C1156   1.406       .  A
C1155      H1166   1.083       .  S
C1156      C1157   1.405       .  A
C1157      C1158   1.397       .  A
C1157      H1167   1.083       .  S
C1158      H1168   1.080       .  S
C1169      C1170   1.406       .  A
C1169      C1174   1.407       .  A
C1170      C1171   1.402       .  A
C1170      H1183   1.083       .  S
C1171      C1172   1.405       .  A
C1171      H1184   1.083       .  S
C1172      C1173   1.406       .  A
C1172      C1175   1.488       .  S
C1173      C1174   1.396       .  A
C1173      H1185   1.082       .  S
C1174      H1186   1.083       .  S
C1175      C1176   1.347       .  D
C1175      H1187   1.086       .  S
C1176      C1177   1.485       .  S
C1176      H1188   1.086       .  S
C1177      C1178   1.402       .  A
C1177      C1182   1.408       .  A
C1178      C1179   1.396       .  A
C1178      H1189   1.083       .  S
C1179      C1180   1.405       .  A
C1179      H1190   1.083       .  S
C1180      C1181   1.406       .  A
C1181      C1182   1.402       .  A
C1181      H1191   1.083       .  S
C1182      H1192   1.082       .  S
C1193      C1194   1.406       .  A
C1193      C1198   1.407       .  A
C1194      C1195   1.403   1_556  A
C1194      H1207   1.083       .  S
C1195      C1196   1.405       .  A
C1195      H1208   1.083       .  S
C1196      C1197   1.404       .  A
C1196      C1199   1.484       .  S
C1197      C1198   1.394   1_554  A
C1197      H1209   1.083       .  S
C1198      H1210   1.083       .  S
C1199      C1200   1.347       .  D
C1199      H1211   1.086       .  S
C1200      C1201   1.482       .  S
C1200      H1212   1.086       .  S
C1201      C1202   1.402       .  A
C1201      C1206   1.406       .  A
C1202      C1203   1.398       .  A
C1202      H1213   1.083       .  S
C1203      C1204   1.406       .  A
C1203      H1214   1.083       .  S
C1204      C1205   1.407       .  A
C1205      C1206   1.398       .  A
C1205      H1215   1.083       .  S
C1206      H1216   1.082       .  S
C1217      C1218   1.406       .  A
C1217      C1222   1.406       .  A
C1218      C1219   1.397       .  A
C1218      H1231   1.083       .  S
C1219      C1220   1.402       .  A
C1219      H1232   1.084       .  S
C1220      C1221   1.408       .  A
C1220      C1223   1.486       .  S
C1221      C1222   1.398       .  A
C1221      H1233   1.081       .  S
C1222      H1234   1.083       .  S
C1223      C1224   1.347       .  D
C1223      H1235   1.084       .  S
C1224      C1225   1.486       .  S
C1224      H1236   1.085       .  S
C1225      C1226   1.402       .  A
C1225      C1230   1.409       .  A
C1226      C1227   1.396       .  A
C1226      H1237   1.084       .  S
C1227      C1228   1.406       .  A
C1227      H1238   1.083       .  S
C1228      C1229   1.406       .  A
C1229      C1230   1.399       .  A
C1229      H1239   1.083       .  S
C1230      H1240   1.080       .  S
C1241      C1242   1.407       .  A
C1241      C1246   1.407       .  A
C1242      C1243   1.403       .  A
C1242      H1255   1.083       .  S
C1243      C1244   1.406       .  A
C1243      H1256   1.083       .  S
C1244      C1245   1.408       .  A
C1244      C1247   1.494       .  S
C1245      C1246   1.399       .  A
C1245      H1257   1.081       .  S
C1246      H1258   1.083       .  S
C1247      C1248   1.350       .  D
C1247      H1259   1.086       .  S
C1248      C1249   1.490       .  S
C1248      H1260   1.085       .  S
C1249      C1250   1.403       .  A
C1249      C1254   1.409       .  A
C1250      C1251   1.397       .  A
C1250      H1261   1.084       .  S
C1251      C1252   1.406       .  A
C1251      H1262   1.083       .  S
C1252      C1253   1.407       .  A
C1253      C1254   1.404       .  A
C1253      H1263   1.083       .  S
C1254      H1264   1.082       .  S
C1265      C1266   1.407       .  A
C1265      C1270   1.404       .  A
C1266      C1267   1.399       .  A
C1266      H1279   1.083       .  S
C1267      C1268   1.402       .  A
C1267      H1280   1.083       .  S
C1268      C1269   1.409       .  A
C1268      C1271   1.488       .  S
C1269      C1270   1.397       .  A
C1269      H1281   1.081       .  S
C1270      H1282   1.083       .  S
C1271      C1272   1.347       .  D
C1271      H1283   1.084       .  S
C1272      C1273   1.486       .  S
C1272      H1284   1.085       .  S
C1273      C1274   1.401       .  A
C1273      C1278   1.410       .  A
C1274      C1275   1.393       .  A
C1274      H1285   1.084       .  S
C1275      C1276   1.405       .  A
C1275      H1286   1.083       .  S
C1276      C1277   1.407       .  A
C1277      C1278   1.403       .  A
C1277      H1287   1.083       .  S
C1278      H1288   1.081       .  S
C1289      C1290   1.406       .  A
C1289      C1294   1.406       .  A
C1290      C1291   1.402       .  A
C1290      H1303   1.083       .  S
C1291      C1292   1.405   1_554  A
C1291      H1304   1.083   1_554  S
C1292      C1293   1.406   1_556  A
C1292      C1295   1.486       .  S
C1293      C1294   1.394       .  A
C1293      H1305   1.081   1_554  S
C1294      H1306   1.083       .  S
C1295      C1296   1.348       .  D
C1295      H1307   1.086       .  S
C1296      C1297   1.483       .  S
C1296      H1308   1.085       .  S
C1297      C1298   1.402       .  A
C1297      C1302   1.407       .  A
C1298      C1299   1.396       .  A
C1298      H1309   1.084       .  S
C1299      C1300   1.405       .  A
C1299      H1310   1.083       .  S
C1300      C1301   1.405       .  A
C1301      C1302   1.399       .  A
C1301      H1311   1.083       .  S
C1302      H1312   1.082       .  S
C1313      C1314   1.405       .  A
C1313      C1318   1.405       .  A
C1314      C1315   1.395       .  A
C1314      H1327   1.083       .  S
C1315      C1316   1.402       .  A
C1315      H1328   1.084       .  S
C1316      C1317   1.409       .  A
C1316      C1319   1.486       .  S
C1317      C1318   1.405       .  A
C1317      H1329   1.082       .  S
C1318      H1330   1.083       .  S
C1319      C1320   1.347       .  D
C1319      H1331   1.085       .  S
C1320      C1321   1.490       .  S
C1320      H1332   1.086       .  S
C1321      C1322   1.404       .  A
C1321      C1326   1.407       .  A
C1322      C1323   1.401       .  A
C1322      H1333   1.083       .  S
C1323      C1324   1.407       .  A
C1323      H1334   1.083       .  S
C1324      C1325   1.406       .  A
C1325      C1326   1.398       .  A
C1325      H1335   1.083       .  S
C1326      H1336   1.081       .  S
C1337      C1338   1.407       .  A
C1337      C1342   1.408       .  A
C1338      C1339   1.400       .  A
C1338      H1351   1.083       .  S
C1339      C1340   1.404       .  A
C1339      H1352   1.083       .  S
C1340      C1341   1.407       .  A
C1340      C1343   1.490       .  S
C1341      C1342   1.400       .  A
C1341      H1353   1.082       .  S
C1342      H1354   1.083       .  S
C1343      C1344   1.348       .  D
C1343      H1355   1.086       .  S
C1344      C1345   1.487       .  S
C1344      H1356   1.085       .  S
C1345      C1346   1.402       .  A
C1345      C1350   1.408       .  A
C1346      C1347   1.398       .  A
C1346      H1357   1.083       .  S
C1347      C1348   1.406       .  A
C1347      H1358   1.083       .  S
C1348      C1349   1.406       .  A
C1349      C1350   1.403       .  A
C1349      H1359   1.083       .  S
C1350      H1360   1.082       .  S
C1361      C1362   1.407       .  A
C1361      C1366   1.406       .  A
C1362      C1363   1.400       .  A
C1362      H1375   1.083       .  S
C1363      C1364   1.404       .  A
C1363      H1376   1.084       .  S
C1364      C1365   1.408       .  A
C1364      C1367   1.489       .  S
C1365      C1366   1.398       .  A
C1365      H1377   1.081       .  S
C1366      H1378   1.083       .  S
C1367      C1368   1.349   1_655  D
C1367      H1379   1.084       .  S
C1368      C1369   1.489       .  S
C1368      H1380   1.085   1_455  S
C1369      C1370   1.404       .  A
C1369      C1374   1.409       .  A
C1370      C1371   1.397       .  A
C1370      H1381   1.084       .  S
C1371      C1372   1.406       .  A
C1371      H1382   1.083       .  S
C1372      C1373   1.406       .  A
C1373      C1374   1.400       .  A
C1373      H1383   1.083       .  S
C1374      H1384   1.081       .  S
C1385      C1386   1.406       .  A
C1385      C1390   1.406       .  A
C1386      C1387   1.400       .  A
C1386      H1399   1.083       .  S
C1387      C1388   1.404       .  A
C1387      H1400   1.083       .  S
C1388      C1389   1.406       .  A
C1388      C1391   1.487       .  S
C1389      C1390   1.398       .  A
C1389      H1401   1.082       .  S
C1390      H1402   1.083       .  S
C1391      C1392   1.348       .  D
C1391      H1403   1.086       .  S
C1392      C1393   1.486       .  S
C1392      H1404   1.086       .  S
C1393      C1394   1.403       .  A
C1393      C1398   1.406       .  A
C1394      C1395   1.399       .  A
C1394      H1405   1.083       .  S
C1395      C1396   1.406       .  A
C1395      H1406   1.083       .  S
C1396      C1397   1.408       .  A
C1397      C1398   1.399       .  A
C1397      H1407   1.083       .  S
C1398      H1408   1.082       .  S
C1409      C1410   1.407       .  A
C1409      C1414   1.405       .  A
C1410      C1411   1.399       .  A
C1410      H1423   1.083       .  S
C1411      C1412   1.404       .  A
C1411      H1424   1.084       .  S
C1412      C1413   1.410       .  A
C1412      C1415   1.492       .  S
C1413      C1414   1.400       .  A
C1413      H1425   1.081       .  S
C1414      H1426   1.083       .  S
C1415      C1416   1.349   1_655  D
C1415      H1427   1.083   1_655  S
C1416      C1417   1.493       .  S
C1416      H1428   1.085       .  S
C1417      C1418   1.403       .  A
C1417      C1422   1.411       .  A
C1418      C1419   1.396       .  A
C1418      H1429   1.084       .  S
C1419      C1420   1.406       .  A
C1419      H1430   1.083       .  S
C1420      C1421   1.406       .  A
C1421      C1422   1.404       .  A
C1421      H1431   1.083       .  S
C1422      H1432   1.080       .  S
C1433      C1434   1.405       .  A
C1433      C1438   1.406       .  A
C1434      C1435   1.393       .  A
C1434      H1447   1.083       .  S
C1435      C1436   1.400       .  A
C1435      H1448   1.084       .  S
C1436      C1437   1.409       .  A
C1436      C1439   1.483       .  S
C1437      C1438   1.404       .  A
C1437      H1449   1.082       .  S
C1438      H1450   1.083       .  S
C1439      C1440   1.346       .  D
C1439      H1451   1.086       .  S
C1440      C1441   1.488       .  S
C1440      H1452   1.086       .  S
C1441      C1442   1.404       .  A
C1441      C1446   1.407       .  A
C1442      C1443   1.400       .  A
C1442      H1453   1.083       .  S
C1443      C1444   1.407       .  A
C1443      H1454   1.083       .  S
C1444      C1445   1.406       .  A
C1445      C1446   1.397       .  A
C1445      H1455   1.083       .  S
C1446      H1456   1.082       .  S
C1457      C1458   1.406       .  A
C1457      C1462   1.406       .  A
C1458      C1459   1.397       .  A
C1458      H1471   1.083       .  S
C1459      C1460   1.402       .  A
C1459      H1472   1.083       .  S
C1460      C1461   1.406       .  A
C1460      C1463   1.480       .  S
C1461      C1462   1.397       .  A
C1461      H1473   1.082       .  S
C1462      H1474   1.083       .  S
C1463      C1464   1.345       .  D
C1463      H1475   1.086       .  S
C1464      C1465   1.481       .  S
C1464      H1476   1.086       .  S
C1465      C1466   1.403       .  A
C1465      C1470   1.405       .  A
C1466      C1467   1.398       .  A
C1466      H1477   1.083       .  S
C1467      C1468   1.405       .  A
C1467      H1478   1.083       .  S
C1468      C1469   1.406       .  A
C1469      C1470   1.396       .  A
C1469      H1479   1.083       .  S
C1470      H1480   1.083       .  S
C1481      C1482   1.406       .  A
C1481      C1486   1.405       .  A
C1482      C1483   1.394       .  A
C1482      H1495   1.083       .  S
C1483      C1484   1.400       .  A
C1483      H1496   1.083       .  S
C1484      C1485   1.409       .  A
C1484      C1487   1.483       .  S
C1485      C1486   1.401       .  A
C1485      H1497   1.082       .  S
C1486      H1498   1.083       .  S
C1487      C1488   1.343       .  D
C1487      H1499   1.086       .  S
C1488      C1489   1.483       .  S
C1488      H1500   1.086       .  S
C1489      C1490   1.399       .  A
C1489      C1494   1.409       .  A
C1490      C1491   1.394       .  A
C1490      H1501   1.083       .  S
C1491      C1492   1.408       .  A
C1491      H1502   1.083       .  S
C1492      C1493   1.405       .  A
C1493      C1494   1.401       .  A
C1493      H1503   1.083       .  S
C1494      H1504   1.082       .  S
C1505      C1506   1.406       .  A
C1505      C1510   1.406       .  A
C1506      C1507   1.398       .  A
C1506      H1519   1.083       .  S
C1507      C1508   1.403       .  A
C1507      H1520   1.084       .  S
C1508      C1509   1.409       .  A
C1508      C1511   1.488       .  S
C1509      C1510   1.399       .  A
C1509      H1521   1.081       .  S
C1510      H1522   1.083       .  S
C1511      C1512   1.348   1_655  D
C1511      H1523   1.084       .  S
C1512      C1513   1.489       .  S
C1512      H1524   1.085   1_455  S
C1513      C1514   1.403       .  A
C1513      C1518   1.409       .  A
C1514      C1515   1.397       .  A
C1514      H1525   1.084   1_556  S
C1515      C1516   1.406       .  A
C1515      H1526   1.083   1_556  S
C1516      C1517   1.406       .  A
C1517      C1518   1.400       .  A
C1517      H1527   1.083       .  S
C1518      H1528   1.081       .  S
C1529      C1530   1.408       .  A
C1529      C1534   1.406       .  A
C1530      C1531   1.396       .  A
C1530      H1543   1.083       .  S
C1531      C1532   1.401       .  A
C1531      H1544   1.083       .  S
C1532      C1533   1.410       .  A
C1532      C1535   1.489       .  S
C1533      C1534   1.403       .  A
C1533      H1545   1.082       .  S
C1534      H1546   1.083       .  S
C1535      C1536   1.346       .  D
C1535      H1547   1.086       .  S
C1536      C1537   1.489       .  S
C1536      H1548   1.085       .  S
C1537      C1538   1.401       .  A
C1537      C1542   1.410       .  A
C1538      C1539   1.397       .  A
C1538      H1549   1.083       .  S
C1539      C1540   1.408       .  A
C1539      H1550   1.083       .  S
C1540      C1541   1.406       .  A
C1541      C1542   1.403       .  A
C1541      H1551   1.083       .  S
C1542      H1552   1.082       .  S
C1553      C1554   1.405       .  A
C1553      C1558   1.406       .  A
C1554      C1555   1.396       .  A
C1554      H1567   1.083       .  S
C1555      C1556   1.402       .  A
C1555      H1568   1.084       .  S
C1556      C1557   1.408       .  A
C1556      C1559   1.486   1_556  S
C1557      C1558   1.401       .  A
C1557      H1569   1.082       .  S
C1558      H1570   1.083       .  S
C1559      C1560   1.347       .  D
C1559      H1571   1.085       .  S
C1560      C1561   1.489       .  S
C1560      H1572   1.086       .  S
C1561      C1562   1.404       .  A
C1561      C1566   1.407       .  A
C1562      C1563   1.400       .  A
C1562      H1573   1.083       .  S
C1563      C1564   1.406       .  A
C1563      H1574   1.083       .  S
C1564      C1565   1.407       .  A
C1565      C1566   1.398       .  A
C1565      H1575   1.083       .  S
C1566      H1576   1.081   1_554  S
C1577      C1578   1.406       .  A
C1577      C1582   1.406       .  A
C1578      C1579   1.395       .  A
C1578      H1591   1.083       .  S
C1579      C1580   1.402       .  A
C1579      H1592   1.084       .  S
C1580      C1581   1.410       .  A
C1580      C1583   1.489       .  S
C1581      C1582   1.401       .  A
C1581      H1593   1.080       .  S
C1582      H1594   1.083       .  S
C1583      C1584   1.347   1_655  D
C1583      H1595   1.084   1_655  S
C1584      C1585   1.488       .  S
C1584      H1596   1.083       .  S
C1585      C1586   1.403       .  A
C1585      C1590   1.409       .  A
C1586      C1587   1.398       .  A
C1586      H1597   1.083       .  S
C1587      C1588   1.406       .  A
C1587      H1598   1.083       .  S
C1588      C1589   1.406       .  A
C1589      C1590   1.398       .  A
C1589      H1599   1.083       .  S
C1590      H1600   1.081       .  S
C1601      C1602   1.405       .  A
C1601      C1606   1.406       .  A
C1602      C1603   1.399       .  A
C1602      H1615   1.083       .  S
C1603      C1604   1.404       .  A
C1603      H1616   1.083       .  S
C1604      C1605   1.406       .  A
C1604      C1607   1.483       .  S
C1605      C1606   1.397       .  A
C1605      H1617   1.082       .  S
C1606      H1618   1.083       .  S
C1607      C1608   1.347       .  D
C1607      H1619   1.086       .  S
C1608      C1609   1.484       .  S
C1608      H1620   1.086       .  S
C1609      C1610   1.404       .  A
C1609      C1614   1.405       .  A
C1610      C1611   1.401       .  A
C1610      H1621   1.083       .  S
C1611      C1612   1.406       .  A
C1611      H1622   1.083       .  S
C1612      C1613   1.407       .  A
C1613      C1614   1.395       .  A
C1613      H1623   1.083       .  S
C1614      H1624   1.082       .  S
C1625      C1626   1.406       .  A
C1625      C1630   1.405       .  A
C1626      C1627   1.396       .  A
C1626      H1639   1.083       .  S
C1627      C1628   1.401       .  A
C1627      H1640   1.084       .  S
C1628      C1629   1.409       .  A
C1628      C1631   1.485       .  S
C1629      C1630   1.403       .  A
C1629      H1641   1.082       .  S
C1630      H1642   1.083       .  S
C1631      C1632   1.347       .  D
C1631      H1643   1.086       .  S
C1632      C1633   1.489       .  S
C1632      H1644   1.087       .  S
C1633      C1634   1.404       .  A
C1633      C1638   1.408       .  A
C1634      C1635   1.400       .  A
C1634      H1645   1.083       .  S
C1635      C1636   1.406       .  A
C1635      H1646   1.083       .  S
C1636      C1637   1.408       .  A
C1637      C1638   1.399       .  A
C1637      H1647   1.083       .  S
C1638      H1648   1.082       .  S
C1649      C1650   1.406       .  A
C1649      C1654   1.406       .  A
C1650      C1651   1.396       .  A
C1650      H1663   1.083       .  S
C1651      C1652   1.401       .  A
C1651      H1664   1.083       .  S
C1652      C1653   1.410       .  A
C1652      C1655   1.488       .  S
C1653      C1654   1.404       .  A
C1653      H1665   1.082       .  S
C1654      H1666   1.083       .  S
C1655      C1656   1.346       .  D
C1655      H1667   1.085       .  S
C1656      C1657   1.489       .  S
C1656      H1668   1.086       .  S
C1657      C1658   1.402       .  A
C1657      C1662   1.409       .  A
C1658      C1659   1.397       .  A
C1658      H1669   1.083       .  S
C1659      C1660   1.407       .  A
C1659      H1670   1.083       .  S
C1660      C1661   1.406       .  A
C1661      C1662   1.402       .  A
C1661      H1671   1.083       .  S
C1662      H1672   1.082       .  S
C1673      C1674   1.406       .  A
C1673      C1678   1.406       .  A
C1674      C1675   1.403       .  A
C1674      H1687   1.083       .  S
C1675      C1676   1.406       .  A
C1675      H1688   1.083       .  S
C1676      C1677   1.407       .  A
C1676      C1679   1.491       .  S
C1677      C1678   1.395       .  A
C1677      H1689   1.081       .  S
C1678      H1690   1.083       .  S
C1679      C1680   1.349       .  D
C1679      H1691   1.085       .  S
C1680      C1681   1.487       .  S
C1680      H1692   1.084       .  S
C1681      C1682   1.403       .  A
C1681      C1686   1.409       .  A
C1682      C1683   1.395       .  A
C1682      H1693   1.083       .  S
C1683      C1684   1.405       .  A
C1683      H1694   1.083       .  S
C1684      C1685   1.406       .  A
C1685      C1686   1.403       .  A
C1685      H1695   1.083       .  S
C1686      H1696   1.082       .  S
C1697      C1698   1.405       .  A
C1697      C1702   1.406       .  A
C1698      C1699   1.398       .  A
C1698      H1711   1.083       .  S
C1699      C1700   1.404       .  A
C1699      H1712   1.084       .  S
C1700      C1701   1.408       .  A
C1700      C1703   1.488       .  S
C1701      C1702   1.399       .  A
C1701      H1713   1.080       .  S
C1702      H1714   1.083       .  S
C1703      C1704   1.349       .  D
C1703      H1715   1.085       .  S
C1704      C1705   1.487       .  S
C1704      H1716   1.084       .  S
C1705      C1706   1.403       .  A
C1705      C1710   1.408       .  A
C1706      C1707   1.399       .  A
C1706      H1717   1.083       .  S
C1707      C1708   1.407       .  A
C1707      H1718   1.083       .  S
C1708      C1709   1.406       .  A
C1709      C1710   1.399       .  A
C1709      H1719   1.083       .  S
C1710      H1720   1.081       .  S
C1721      C1722   1.406       .  A
C1721      C1726   1.406       .  A
C1722      C1723   1.399       .  A
C1722      H1735   1.083       .  S
C1723      C1724   1.404       .  A
C1723      H1736   1.083       .  S
C1724      C1725   1.409       .  A
C1724      C1727   1.490       .  S
C1725      C1726   1.398       .  A
C1725      H1737   1.081       .  S
C1726      H1738   1.083       .  S
C1727      C1728   1.349       .  D
C1727      H1739   1.084       .  S
C1728      C1729   1.490       .  S
C1728      H1740   1.084       .  S
C1729      C1730   1.404       .  A
C1729      C1734   1.409       .  A
C1730      C1731   1.397       .  A
C1730      H1741   1.083       .  S
C1731      C1732   1.405       .  A
C1731      H1742   1.083       .  S
C1732      C1733   1.407       .  A
C1733      C1734   1.400       .  A
C1733      H1743   1.083       .  S
C1734      H1744   1.080       .  S
C1745      C1746   1.407       .  A
C1745      C1750   1.405       .  A
C1746      C1747   1.393       .  A
C1746      H1759   1.083       .  S
C1747      C1748   1.399       .  A
C1747      H1760   1.084       .  S
C1748      C1749   1.409       .  A
C1748      C1751   1.483       .  S
C1749      C1750   1.403       .  A
C1749      H1761   1.082       .  S
C1750      H1762   1.083       .  S
C1751      C1752   1.344       .  D
C1751      H1763   1.086       .  S
C1752      C1753   1.486       .  S
C1752      H1764   1.086       .  S
C1753      C1754   1.402       .  A
C1753      C1758   1.409       .  A
C1754      C1755   1.397       .  A
C1754      H1765   1.083       .  S
C1755      C1756   1.407       .  A
C1755      H1766   1.083       .  S
C1756      C1757   1.406       .  A
C1757      C1758   1.400       .  A
C1757      H1767   1.083       .  S
C1758      H1768   1.081       .  S
C1769      C1770   1.406       .  A
C1769      C1774   1.406       .  A
C1770      C1771   1.400       .  A
C1770      H1783   1.083       .  S
C1771      C1772   1.403       .  A
C1771      H1784   1.083       .  S
C1772      C1773   1.405       .  A
C1772      C1775   1.483       .  S
C1773      C1774   1.395       .  A
C1773      H1785   1.082       .  S
C1774      H1786   1.083       .  S
C1775      C1776   1.345       .  D
C1775      H1787   1.086       .  S
C1776      C1777   1.480       .  S
C1776      H1788   1.086       .  S
C1777      C1778   1.401       .  A
C1777      C1782   1.406       .  A
C1778      C1779   1.396       .  A
C1778      H1789   1.083       .  S
C1779      C1780   1.406       .  A
C1779      H1790   1.083       .  S
C1780      C1781   1.406       .  A
C1781      C1782   1.399       .  A
C1781      H1791   1.083       .  S
C1782      H1792   1.083       .  S
C1793      C1794   1.406       .  A
C1793      C1798   1.406       .  A
C1794      C1795   1.398       .  A
C1794      H1807   1.083       .  S
C1795      C1796   1.404       .  A
C1795      H1808   1.083       .  S
C1796      C1797   1.409       .  A
C1796      C1799   1.490       .  S
C1797      C1798   1.400       .  A
C1797      H1809   1.080       .  S
C1798      H1810   1.083       .  S
C1799      C1800   1.349       .  D
C1799      H1811   1.084       .  S
C1800      C1801   1.488       .  S
C1800      H1812   1.083       .  S
C1801      C1802   1.403       .  A
C1801      C1806   1.408       .  A
C1802      C1803   1.399       .  A
C1802      H1813   1.083       .  S
C1803      C1804   1.406       .  A
C1803      H1814   1.083       .  S
C1804      C1805   1.406       .  A
C1805      C1806   1.399       .  A
C1805      H1815   1.083       .  S
C1806      H1816   1.081       .  S
C1817      C1818   1.407       .  A
C1817      C1822   1.407       .  A
C1818      C1819   1.401       .  A
C1818      H1831   1.083       .  S
C1819      C1820   1.404       .  A
C1819      H1832   1.083       .  S
C1820      C1821   1.406       .  A
C1820      C1823   1.487       .  S
C1821      C1822   1.399       .  A
C1821      H1833   1.082       .  S
C1822      H1834   1.083       .  S
C1823      C1824   1.348       .  D
C1823      H1835   1.086       .  S
C1824      C1825   1.486       .  S
C1824      H1836   1.086       .  S
C1825      C1826   1.404       .  A
C1825      C1830   1.405       .  A
C1826      C1827   1.400       .  A
C1826      H1837   1.083       .  S
C1827      C1828   1.405       .  A
C1827      H1838   1.083       .  S
C1828      C1829   1.409       .  A
C1829      C1830   1.400       .  A
C1829      H1839   1.083       .  S
C1830      H1840   1.083       .  S
C1841      C1842   1.406       .  A
C1841      C1846   1.406       .  A
C1842      C1843   1.398       .  A
C1842      H1855   1.083       .  S
C1843      C1844   1.404       .  A
C1843      H1856   1.083       .  S
C1844      C1845   1.409       .  A
C1844      C1847   1.490       .  S
C1845      C1846   1.401       .  A
C1845      H1857   1.081       .  S
C1846      H1858   1.082       .  S
C1847      C1848   1.349       .  D
C1847      H1859   1.082       .  S
C1848      C1849   1.492       .  S
C1848      H1860   1.083       .  S
C1849      C1850   1.404       .  A
C1849      C1854   1.410       .  A
C1850      C1851   1.398       .  A
C1850      H1861   1.083       .  S
C1851      C1852   1.406       .  A
C1851      H1862   1.082       .  S
C1852      C1853   1.405       .  A
C1853      C1854   1.400       .  A
C1853      H1863   1.083       .  S
C1854      H1864   1.079       .  S
C1865      C1866   1.406       .  A
C1865      C1870   1.407       .  A
C1866      C1867   1.398       .  A
C1866      H1879   1.083       .  S
C1867      C1868   1.402       .  A
C1867      H1880   1.083       .  S
C1868      C1869   1.405       .  A
C1868      C1871   1.482       .  S
C1869      C1870   1.398       .  A
C1869      H1881   1.083       .  S
C1870      H1882   1.083       .  S
C1871      C1872   1.347       .  D
C1871      H1883   1.086       .  S
C1872      C1873   1.483       .  S
C1872      H1884   1.086       .  S
C1873      C1874   1.404       .  A
C1873      C1878   1.405       .  A
C1874      C1875   1.401       .  A
C1874      H1885   1.083       .  S
C1875      C1876   1.406       .  A
C1875      H1886   1.083       .  S
C1876      C1877   1.406       .  A
C1877      C1878   1.395       .  A
C1877      H1887   1.083       .  S
C1878      H1888   1.083       .  S
C1889      C1890   1.407       .  A
C1889      C1894   1.406       .  A
C1890      C1891   1.396       .  A
C1890      H1903   1.083       .  S
C1891      C1892   1.401       .  A
C1891      H1904   1.084       .  S
C1892      C1893   1.409       .  A
C1892      C1895   1.486       .  S
C1893      C1894   1.400       .  A
C1893      H1905   1.081       .  S
C1894      H1906   1.083       .  S
C1895      C1896   1.345       .  D
C1895      H1907   1.086       .  S
C1896      C1897   1.484       .  S
C1896      H1908   1.085       .  S
C1897      C1898   1.401       .  A
C1897      C1902   1.410       .  A
C1898      C1899   1.394   1_554  A
C1898      H1909   1.084       .  S
C1899      C1900   1.405       .  A
C1899      H1910   1.084       .  S
C1900      C1901   1.403       .  A
C1901      C1902   1.402   1_556  A
C1901      H1911   1.083       .  S
C1902      H1912   1.082       .  S
C1913      C1914   1.408       .  A
C1913      C1918   1.405       .  A
C1914      C1915   1.396       .  A
C1914      H1927   1.083       .  S
C1915      C1916   1.401       .  A
C1915      H1928   1.083       .  S
C1916      C1917   1.409       .  A
C1916      C1919   1.487       .  S
C1917      C1918   1.402       .  A
C1917      H1929   1.082       .  S
C1918      H1930   1.083       .  S
C1919      C1920   1.345       .  D
C1919      H1931   1.086       .  S
C1920      C1921   1.486       .  S
C1920      H1932   1.086       .  S
C1921      C1922   1.401       .  A
C1921      C1926   1.409       .  A
C1922      C1923   1.395       .  A
C1922      H1933   1.083       .  S
C1923      C1924   1.407       .  A
C1923      H1934   1.083       .  S
C1924      C1925   1.407       .  A
C1925      C1926   1.403       .  A
C1925      H1935   1.083       .  S
C1926      H1936   1.082       .  S
C1937      C1938   1.407       .  A
C1937      C1942   1.406       .  A
C1938      C1939   1.399       .  A
C1938      H1951   1.082       .  S
C1939      C1940   1.403       .  A
C1939      H1952   1.084       .  S
C1940      C1941   1.410       .  A
C1940      C1943   1.491       .  S
C1941      C1942   1.400       .  A
C1941      H1953   1.080       .  S
C1942      H1954   1.083       .  S
C1943      C1944   1.348       .  D
C1943      H1955   1.085       .  S
C1944      C1945   1.489       .  S
C1944      H1956   1.084       .  S
C1945      C1946   1.403       .  A
C1945      C1950   1.410       .  A
C1946      C1947   1.396       .  A
C1946      H1957   1.084       .  S
C1947      C1948   1.406       .  A
C1947      H1958   1.083       .  S
C1948      C1949   1.406       .  A
C1949      C1950   1.402       .  A
C1949      H1959   1.083       .  S
C1950      H1960   1.081       .  S
C1961      C1962   1.406       .  A
C1961      C1966   1.408       .  A
C1962      C1963   1.402       .  A
C1962      H1975   1.083       .  S
C1963      C1964   1.405       .  A
C1963      H1976   1.083       .  S
C1964      C1965   1.407       .  A
C1964      C1967   1.491       .  S
C1965      C1966   1.399       .  A
C1965      H1977   1.081       .  S
C1966      H1978   1.083       .  S
C1967      C1968   1.349   1_565  D
C1967      H1979   1.086       .  S
C1968      C1969   1.489       .  S
C1968      H1980   1.085   1_545  S
C1969      C1970   1.403       .  A
C1969      C1974   1.409       .  A
C1970      C1971   1.397       .  A
C1970      H1981   1.083       .  S
C1971      C1972   1.406       .  A
C1971      H1982   1.083       .  S
C1972      C1973   1.406       .  A
C1973      C1974   1.403       .  A
C1973      H1983   1.083       .  S
C1974      H1984   1.082       .  S
C1985      C1986   1.406       .  A
C1985      C1990   1.407       .  A
C1986      C1987   1.396       .  A
C1986      H1999   1.083       .  S
C1987      C1988   1.401       .  A
C1987      H2000   1.083       .  S
C1988      C1989   1.409       .  A
C1988      C1991   1.487       .  S
C1989      C1990   1.402       .  A
C1989      H2001   1.082       .  S
C1990      H2002   1.083       .  S
C1991      C1992   1.348       .  D
C1991      H2003   1.083       .  S
C1992      C1993   1.492       .  S
C1992      H2004   1.085       .  S
C1993      C1994   1.404       .  A
C1993      C1998   1.411       .  A
C1994      C1995   1.398       .  A
C1994      H2005   1.083       .  S
C1995      C1996   1.406       .  A
C1995      H2006   1.083       .  S
C1996      C1997   1.405       .  A
C1997      C1998   1.401       .  A
C1997      H2007   1.083       .  S
C1998      H2008   1.080       .  S
C2009      C2010   1.406       .  A
C2009      C2014   1.406       .  A
C2010      C2011   1.401       .  A
C2010      H2023   1.083       .  S
C2011      C2012   1.404   1_554  A
C2011      H2024   1.083   1_554  S
C2012      C2013   1.405   1_556  A
C2012      C2015   1.484       .  S
C2013      C2014   1.393       .  A
C2013      H2025   1.082   1_554  S
C2014      H2026   1.083       .  S
C2015      C2016   1.346       .  D
C2015      H2027   1.086       .  S
C2016      C2017   1.481       .  S
C2016      H2028   1.086       .  S
C2017      C2018   1.401       .  A
C2017      C2022   1.407       .  A
C2018      C2019   1.395       .  A
C2018      H2029   1.084       .  S
C2019      C2020   1.405       .  A
C2019      H2030   1.083       .  S
C2020      C2021   1.406       .  A
C2021      C2022   1.400       .  A
C2021      H2031   1.083       .  S
C2022      H2032   1.082       .  S
C2033      C2034   1.405       .  A
C2033      C2038   1.407       .  A
C2034      C2035   1.399       .  A
C2034      H2047   1.083       .  S
C2035      C2036   1.404       .  A
C2035      H2048   1.083       .  S
C2036      C2037   1.406       .  A
C2036      C2039   1.487       .  S
C2037      C2038   1.398       .  A
C2037      H2049   1.082       .  S
C2038      H2050   1.083       .  S
C2039      C2040   1.349       .  D
C2039      H2051   1.085       .  S
C2040      C2041   1.488       .  S
C2040      H2052   1.086       .  S
C2041      C2042   1.406       .  A
C2041      C2046   1.406       .  A
C2042      C2043   1.401       .  A
C2042      H2053   1.083       .  S
C2043      C2044   1.404       .  A
C2043      H2054   1.083       .  S
C2044      C2045   1.407       .  A
C2045      C2046   1.397       .  A
C2045      H2055   1.083       .  S
C2046      H2056   1.082       .  S
C2057      C2058   1.407       .  A
C2057      C2062   1.407       .  A
C2058      C2059   1.402       .  A
C2058      H2071   1.083       .  S
C2059      C2060   1.405       .  A
C2059      H2072   1.083       .  S
C2060      C2061   1.407       .  A
C2060      C2063   1.490       .  S
C2061      C2062   1.397       .  A
C2061      H2073   1.081       .  S
C2062      H2074   1.083       .  S
C2063      C2064   1.348   1_545  D
C2063      H2075   1.086   1_545  S
C2064      C2065   1.485       .  S
C2064      H2076   1.085   1_565  S
C2065      C2066   1.402       .  A
C2065      C2070   1.408       .  A
C2066      C2067   1.396       .  A
C2066      H2077   1.084       .  S
C2067      C2068   1.405       .  A
C2067      H2078   1.083       .  S
C2068      C2069   1.406       .  A
C2069      C2070   1.402       .  A
C2069      H2079   1.083       .  S
C2070      H2080   1.082       .  S
C2081      C2082   1.406       .  A
C2081      C2086   1.405       .  A
C2082      C2083   1.397       .  A
C2082      H2095   1.083       .  S
C2083      C2084   1.403       .  A
C2083      H2096   1.084       .  S
C2084      C2085   1.409       .  A
C2084      C2087   1.488       .  S
C2085      C2086   1.400       .  A
C2085      H2097   1.081       .  S
C2086      H2098   1.083       .  S
C2087      C2088   1.348       .  D
C2087      H2099   1.084       .  S
C2088      C2089   1.489       .  S
C2088      H2100   1.084       .  S
C2089      C2090   1.404       .  A
C2089      C2094   1.409       .  A
C2090      C2091   1.398       .  A
C2090      H2101   1.084       .  S
C2091      C2092   1.406       .  A
C2091      H2102   1.082       .  S
C2092      C2093   1.406       .  A
C2093      C2094   1.399       .  A
C2093      H2103   1.084       .  S
C2094      H2104   1.080       .  S
C2105      C2106   1.405       .  A
C2105      C2110   1.407       .  A
C2106      C2107   1.399       .  A
C2106      H2119   1.083       .  S
C2107      C2108   1.404       .  A
C2107      H2120   1.083       .  S
C2108      C2109   1.407       .  A
C2108      C2111   1.488       .  S
C2109      C2110   1.398       .  A
C2109      H2121   1.081       .  S
C2110      H2122   1.083       .  S
C2111      C2112   1.347   1_545  D
C2111      H2123   1.086   1_545  S
C2112      C2113   1.485       .  S
C2112      H2124   1.085   1_565  S
C2113      C2114   1.402       .  A
C2113      C2118   1.408       .  A
C2114      C2115   1.397       .  A
C2114      H2125   1.084       .  S
C2115      C2116   1.406       .  A
C2115      H2126   1.083       .  S
C2116      C2117   1.405       .  A
C2117      C2118   1.400       .  A
C2117      H2127   1.083       .  S
C2118      H2128   1.082       .  S
C2129      C2130   1.406       .  A
C2129      C2134   1.408       .  A
C2130      C2131   1.402       .  A
C2130      H2143   1.083       .  S
C2131      C2132   1.405       .  A
C2131      H2144   1.083       .  S
C2132      C2133   1.405       .  A
C2132      C2135   1.487       .  S
C2133      C2134   1.395       .  A
C2133      H2145   1.082       .  S
C2134      H2146   1.083       .  S
C2135      C2136   1.350       .  D
C2135      H2147   1.085       .  S
C2136      C2137   1.487       .  S
C2136      H2148   1.086       .  S
C2137      C2138   1.406       .  A
C2137      C2142   1.405       .  A
C2138      C2139   1.401       .  A
C2138      H2149   1.083       .  S
C2139      C2140   1.405       .  A
C2139      H2150   1.083       .  S
C2140      C2141   1.408       .  A
C2141      C2142   1.396       .  A
C2141      H2151   1.083       .  S
C2142      H2152   1.081       .  S
C2153      C2154   1.406       .  A
C2153      C2158   1.406       .  A
C2154      C2155   1.398       .  A
C2154      H2167   1.082       .  S
C2155      C2156   1.404       .  A
C2155      H2168   1.084       .  S
C2156      C2157   1.409       .  A
C2156      C2159   1.490       .  S
C2157      C2158   1.400       .  A
C2157      H2169   1.080       .  S
C2158      H2170   1.083       .  S
C2159      C2160   1.349       .  D
C2159      H2171   1.084       .  S
C2160      C2161   1.490       .  S
C2160      H2172   1.084       .  S
C2161      C2162   1.404       .  A
C2161      C2166   1.409       .  A
C2162      C2163   1.399       .  A
C2162      H2173   1.084       .  S
C2163      C2164   1.406       .  A
C2163      H2174   1.083       .  S
C2164      C2165   1.406       .  A
C2165      C2166   1.399       .  A
C2165      H2175   1.083       .  S
C2166      H2176   1.081       .  S
C2177      C2178   1.407       .  A
C2177      C2182   1.407       .  A
C2178      C2179   1.402       .  A
C2178      H2191   1.083       .  S
C2179      C2180   1.405       .  A
C2179      H2192   1.083       .  S
C2180      C2181   1.405       .  A
C2180      C2183   1.485       .  S
C2181      C2182   1.395       .  A
C2181      H2193   1.082       .  S
C2182      H2194   1.083       .  S
C2183      C2184   1.348       .  D
C2183      H2195   1.086       .  S
C2184      C2185   1.483       .  S
C2184      H2196   1.086       .  S
C2185      C2186   1.403       .  A
C2185      C2190   1.406       .  A
C2186      C2187   1.398       .  A
C2186      H2197   1.083       .  S
C2187      C2188   1.405       .  A
C2187      H2198   1.083       .  S
C2188      C2189   1.406       .  A
C2189      C2190   1.398       .  A
C2189      H2199   1.083       .  S
C2190      H2200   1.082       .  S
C2201      C2202   1.405       .  A
C2201      C2206   1.405       .  A
C2202      C2203   1.393       .  A
C2202      H2215   1.083       .  S
C2203      C2204   1.400       .  A
C2203      H2216   1.084       .  S
C2204      C2205   1.411       .  A
C2204      C2207   1.487       .  S
C2205      C2206   1.406       .  A
C2205      H2217   1.082       .  S
C2206      H2218   1.083       .  S
C2207      C2208   1.347       .  D
C2207      H2219   1.085       .  S
C2208      C2209   1.491       .  S
C2208      H2220   1.086       .  S
C2209      C2210   1.403       .  A
C2209      C2214   1.409       .  A
C2210      C2211   1.399       .  A
C2210      H2221   1.083       .  S
C2211      C2212   1.408       .  A
C2211      H2222   1.083       .  S
C2212      C2213   1.406       .  A
C2213      C2214   1.401       .  A
C2213      H2223   1.083       .  S
C2214      H2224   1.081       .  S
C2225      C2226   1.408   1_554  A
C2225      C2230   1.405       .  A
C2226      C2227   1.395       .  A
C2226      H2239   1.083       .  S
C2227      C2228   1.399       .  A
C2227      H2240   1.083       .  S
C2228      C2229   1.409   1_556  A
C2228      C2231   1.484       .  S
C2229      C2230   1.404       .  A
C2229      H2241   1.083       .  S
C2230      H2242   1.083       .  S
C2231      C2232   1.343   1_565  D
C2231      H2243   1.086       .  S
C2232      C2233   1.485       .  S
C2232      H2244   1.087   1_556  S
C2233      C2234   1.400       .  A
C2233      C2238   1.409       .  A
C2234      C2235   1.394       .  A
C2234      H2245   1.084   1_556  S
C2235      C2236   1.407       .  A
C2235      H2246   1.083       .  S
C2236      C2237   1.406       .  A
C2237      C2238   1.404       .  A
C2237      H2247   1.083       .  S
C2238      H2248   1.082       .  S
C2249      C2250   1.406       .  A
C2249      C2254   1.407       .  A
C2250      C2251   1.402       .  A
C2250      H2263   1.083       .  S
C2251      C2252   1.405       .  A
C2251      H2264   1.083       .  S
C2252      C2253   1.406       .  A
C2252      C2255   1.489       .  S
C2253      C2254   1.397       .  A
C2253      H2265   1.082       .  S
C2254      H2266   1.083       .  S
C2255      C2256   1.347       .  D
C2255      H2267   1.086       .  S
C2256      C2257   1.485       .  S
C2256      H2268   1.086       .  S
C2257      C2258   1.402       .  A
C2257      C2262   1.408       .  A
C2258      C2259   1.397       .  A
C2258      H2269   1.083       .  S
C2259      C2260   1.406       .  A
C2259      H2270   1.083       .  S
C2260      C2261   1.406       .  A
C2261      C2262   1.402       .  A
C2261      H2271   1.083       .  S
C2262      H2272   1.082       .  S
C2273      C2274   1.405       .  A
C2273      C2278   1.407       .  A
C2274      C2275   1.397       .  A
C2274      H2287   1.083       .  S
C2275      C2276   1.404       .  A
C2275      H2288   1.084       .  S
C2276      C2277   1.410       .  A
C2276      C2279   1.492       .  S
C2277      C2278   1.402       .  A
C2277      H2289   1.080       .  S
C2278      H2290   1.083       .  S
C2279      C2280   1.350       .  D
C2279      H2291   1.085       .  S
C2280      C2281   1.492       .  S
C2280      H2292   1.084       .  S
C2281      C2282   1.405       .  A
C2281      C2286   1.408       .  A
C2282      C2283   1.402       .  A
C2282      H2293   1.083       .  S
C2283      C2284   1.407       .  A
C2283      H2294   1.083       .  S
C2284      C2285   1.406       .  A
C2285      C2286   1.398       .  A
C2285      H2295   1.083       .  S
C2286      H2296   1.081       .  S
C2297      C2298   1.407       .  A
C2297      C2302   1.407       .  A
C2298      C2299   1.399       .  A
C2298      H2311   1.083       .  S
C2299      C2300   1.403       .  A
C2299      H2312   1.084       .  S
C2300      C2301   1.409       .  A
C2300      C2303   1.492       .  S
C2301      C2302   1.402       .  A
C2301      H2313   1.081       .  S
C2302      H2314   1.083       .  S
C2303      C2304   1.349       .  D
C2303      H2315   1.083       .  S
C2304      C2305   1.494       .  S
C2304      H2316   1.085       .  S
C2305      C2306   1.404       .  A
C2305      C2310   1.411       .  A
C2306      C2307   1.398       .  A
C2306      H2317   1.084       .  S
C2307      C2308   1.406       .  A
C2307      H2318   1.082       .  S
C2308      C2309   1.407       .  A
C2309      C2310   1.403       .  A
C2309      H2319   1.083       .  S
C2310      H2320   1.080       .  S
C2321      C2322   1.406       .  A
C2321      C2326   1.404       .  A
C2322      C2323   1.397       .  A
C2322      H2335   1.083       .  S
C2323      C2324   1.402       .  A
C2323      H2336   1.083       .  S
C2324      C2325   1.408       .  A
C2324      C2327   1.484       .  S
C2325      C2326   1.395       .  A
C2325      H2337   1.080       .  S
C2326      H2338   1.083       .  S
C2327      C2328   1.346       .  D
C2327      H2339   1.083       .  S
C2328      C2329   1.483       .  S
C2328      H2340   1.084       .  S
C2329      C2330   1.401       .  A
C2329      C2334   1.409       .  A
C2330      C2331   1.393       .  A
C2330      H2341   1.084       .  S
C2331      C2332   1.405       .  A
C2331      H2342   1.083       .  S
C2332      C2333   1.405       .  A
C2333      C2334   1.399       .  A
C2333      H2343   1.083       .  S
C2334      H2344   1.080       .  S
C2345      C2346   1.405       .  A
C2345      C2350   1.406       .  A
C2346      C2347   1.398       .  A
C2346      H2359   1.083       .  S
C2347      C2348   1.405       .  A
C2347      H2360   1.084       .  S
C2348      C2349   1.411       .  A
C2348      C2351   1.496       .  S
C2349      C2350   1.403       .  A
C2349      H2361   1.079       .  S
C2350      H2362   1.083       .  S
C2351      C2352   1.350       .  D
C2351      H2363   1.084       .  S
C2352      C2353   1.493       .  S
C2352      H2364   1.083       .  S
C2353      C2354   1.404       .  A
C2353      C2358   1.410       .  A
C2354      C2355   1.399       .  A
C2354      H2365   1.084       .  S
C2355      C2356   1.407       .  A
C2355      H2366   1.083       .  S
C2356      C2357   1.406       .  A
C2357      C2358   1.402       .  A
C2357      H2367   1.083       .  S
C2358      H2368   1.081       .  S
C2369      C2370   1.406       .  A
C2369      C2374   1.406       .  A
C2370      C2371   1.402       .  A
C2370      H2383   1.083       .  S
C2371      C2372   1.405       .  A
C2371      H2384   1.083       .  S
C2372      C2373   1.406       .  A
C2372      C2375   1.489       .  S
C2373      C2374   1.396       .  A
C2373      H2385   1.081       .  S
C2374      H2386   1.083       .  S
C2375      C2376   1.347       .  D
C2375      H2387   1.086       .  S
C2376      C2377   1.484       .  S
C2376      H2388   1.085       .  S
C2377      C2378   1.401       .  A
C2377      C2382   1.408       .  A
C2378      C2379   1.396       .  A
C2378      H2389   1.083       .  S
C2379      C2380   1.405       .  A
C2379      H2390   1.083       .  S
C2380      C2381   1.406       .  A
C2381      C2382   1.402       .  A
C2381      H2391   1.083       .  S
C2382      H2392   1.082       .  S
C2393      C2394   1.405       .  A
C2393      C2398   1.406       .  A
C2394      C2395   1.398       .  A
C2394      H2407   1.083       .  S
C2395      C2396   1.403       .  A
C2395      H2408   1.083       .  S
C2396      C2397   1.406       .  A
C2396      C2399   1.482       .  S
C2397      C2398   1.397       .  A
C2397      H2409   1.082       .  S
C2398      H2410   1.083       .  S
C2399      C2400   1.347       .  D
C2399      H2411   1.086       .  S
C2400      C2401   1.484       .  S
C2400      H2412   1.086       .  S
C2401      C2402   1.404   1_554  A
C2401      C2406   1.405   1_554  A
C2402      C2403   1.400       .  A
C2402      H2413   1.083   1_556  S
C2403      C2404   1.405       .  A
C2403      H2414   1.083       .  S
C2404      C2405   1.406       .  A
C2405      C2406   1.394       .  A
C2405      H2415   1.083       .  S
C2406      H2416   1.082   1_556  S
C2417      C2418   1.406       .  A
C2417      C2422   1.408       .  A
C2418      C2419   1.396       .  A
C2418      H2431   1.083       .  S
C2419      C2420   1.404       .  A
C2419      H2432   1.084       .  S
C2420      C2421   1.411       .  A
C2420      C2423   1.495       .  S
C2421      C2422   1.406       .  A
C2421      H2433   1.080       .  S
C2422      H2434   1.083       .  S
C2423      C2424   1.350   1_455  D
C2423      H2435   1.085   1_455  S
C2424      C2425   1.495       .  S
C2424      H2436   1.084       .  S
C2425      C2426   1.405       .  A
C2425      C2430   1.409       .  A
C2426      C2427   1.402       .  A
C2426      H2437   1.083       .  S
C2427      C2428   1.407       .  A
C2427      H2438   1.083       .  S
C2428      C2429   1.406       .  A
C2429      C2430   1.400       .  A
C2429      H2439   1.083       .  S
C2430      H2440   1.081       .  S
C2441      C2442   1.406       .  A
C2441      C2446   1.406       .  A
C2442      C2443   1.398       .  A
C2442      H2455   1.083       .  S
C2443      C2444   1.403       .  A
C2443      H2456   1.083       .  S
C2444      C2445   1.409       .  A
C2444      C2447   1.489       .  S
C2445      C2446   1.399       .  A
C2445      H2457   1.081       .  S
C2446      H2458   1.083       .  S
C2447      C2448   1.348       .  D
C2447      H2459   1.083       .  S
C2448      C2449   1.490       .  S
C2448      H2460   1.085       .  S
C2449      C2450   1.404       .  A
C2449      C2454   1.410       .  A
C2450      C2451   1.397       .  A
C2450      H2461   1.083       .  S
C2451      C2452   1.406       .  A
C2451      H2462   1.083       .  S
C2452      C2453   1.406       .  A
C2453      C2454   1.400       .  A
C2453      H2463   1.083       .  S
C2454      H2464   1.080       .  S
C2465      C2466   1.406       .  A
C2465      C2470   1.409       .  A
C2466      C2467   1.404       .  A
C2466      H2479   1.083       .  S
C2467      C2468   1.406       .  A
C2467      H2480   1.083       .  S
C2468      C2469   1.404       .  A
C2468      C2471   1.487       .  S
C2469      C2470   1.396       .  A
C2469      H2481   1.083       .  S
C2470      H2482   1.083       .  S
C2471      C2472   1.350       .  D
C2471      H2483   1.086       .  S
C2472      C2473   1.486       .  S
C2472      H2484   1.086       .  S
C2473      C2474   1.405       .  A
C2473      C2478   1.405       .  A
C2474      C2475   1.401       .  A
C2474      H2485   1.083       .  S
C2475      C2476   1.406       .  A
C2475      H2486   1.083       .  S
C2476      C2477   1.408       .  A
C2477      C2478   1.398       .  A
C2477      H2487   1.083       .  S
C2478      H2488   1.082       .  S
C2489      C2490   1.406       .  A
C2489      C2494   1.406       .  A
C2490      C2491   1.399       .  A
C2490      H2503   1.083       .  S
C2491      C2492   1.404       .  A
C2491      H2504   1.084       .  S
C2492      C2493   1.408       .  A
C2492      C2495   1.489       .  S
C2493      C2494   1.398       .  A
C2493      H2505   1.081       .  S
C2494      H2506   1.083       .  S
C2495      C2496   1.348   1_455  D
C2495      H2507   1.085       .  S
C2496      C2497   1.488       .  S
C2496      H2508   1.084   1_655  S
C2497      C2498   1.403       .  A
C2497      C2502   1.409       .  A
C2498      C2499   1.396       .  A
C2498      H2509   1.084       .  S
C2499      C2500   1.406       .  A
C2499      H2510   1.083       .  S
C2500      C2501   1.406       .  A
C2501      C2502   1.400       .  A
C2501      H2511   1.083       .  S
C2502      H2512   1.081       .  S
C2513      C2514   1.406       .  A
C2513      C2518   1.405       .  A
C2514      C2515   1.397       .  A
C2514      H2527   1.083       .  S
C2515      C2516   1.403       .  A
C2515      H2528   1.084       .  S
C2516      C2517   1.409       .  A
C2516      C2519   1.488       .  S
C2517      C2518   1.398       .  A
C2517      H2529   1.080       .  S
C2518      H2530   1.083       .  S
C2519      C2520   1.348       .  D
C2519      H2531   1.084       .  S
C2520      C2521   1.488       .  S
C2520      H2532   1.084       .  S
C2521      C2522   1.404       .  A
C2521      C2526   1.408       .  A
C2522      C2523   1.398       .  A
C2522      H2533   1.084       .  S
C2523      C2524   1.405       .  A
C2523      H2534   1.083       .  S
C2524      C2525   1.406       .  A
C2525      C2526   1.398       .  A
C2525      H2535   1.083       .  S
C2526      H2536   1.080       .  S
C2537      C2538   1.407       .  A
C2537      C2542   1.406       .  A
C2538      C2539   1.397       .  A
C2538      H2551   1.083       .  S
C2539      C2540   1.401       .  A
C2539      H2552   1.084       .  S
C2540      C2541   1.407       .  A
C2540      C2543   1.482       .  S
C2541      C2542   1.398       .  A
C2541      H2553   1.082       .  S
C2542      H2554   1.083       .  S
C2543      C2544   1.344       .  D
C2543      H2555   1.086       .  S
C2544      C2545   1.481       .  S
C2544      H2556   1.086       .  S
C2545      C2546   1.401       .  A
C2545      C2550   1.407       .  A
C2546      C2547   1.395       .  A
C2546      H2557   1.084       .  S
C2547      C2548   1.406       .  A
C2547      H2558   1.083       .  S
C2548      C2549   1.404       .  A
C2549      C2550   1.399       .  A
C2549      H2559   1.083       .  S
C2550      H2560   1.082       .  S
C2561      C2562   1.405       .  A
C2561      C2566   1.405       .  A
C2562      C2563   1.396       .  A
C2562      H2575   1.083       .  S
C2563      C2564   1.401       .  A
C2563      H2576   1.083       .  S
C2564      C2565   1.407       .  A
C2564      C2567   1.481       .  S
C2565      C2566   1.400       .  A
C2565      H2577   1.083       .  S
C2566      H2578   1.083       .  S
C2567      C2568   1.346       .  D
C2567      H2579   1.086       .  S
C2568      C2569   1.483       .  S
C2568      H2580   1.086       .  S
C2569      C2570   1.404       .  A
C2569      C2574   1.405       .  A
C2570      C2571   1.402       .  A
C2570      H2581   1.083       .  S
C2571      C2572   1.407       .  A
C2571      H2582   1.083       .  S
C2572      C2573   1.407       .  A
C2573      C2574   1.394       .  A
C2573      H2583   1.083       .  S
C2574      H2584   1.082       .  S
C2585      C2586   1.406       .  A
C2585      C2590   1.407       .  A
C2586      C2587   1.400       .  A
C2586      H2599   1.083       .  S
C2587      C2588   1.405       .  A
C2587      H2600   1.083       .  S
C2588      C2589   1.406       .  A
C2588      C2591   1.487       .  S
C2589      C2590   1.399       .  A
C2589      H2601   1.082       .  S
C2590      H2602   1.083       .  S
C2591      C2592   1.350       .  D
C2591      H2603   1.086       .  S
C2592      C2593   1.487       .  S
C2592      H2604   1.085       .  S
C2593      C2594   1.406       .  A
C2593      C2598   1.405       .  A
C2594      C2595   1.403       .  A
C2594      H2605   1.083       .  S
C2595      C2596   1.405       .  A
C2595      H2606   1.083       .  S
C2596      C2597   1.407       .  A
C2597      C2598   1.395       .  A
C2597      H2607   1.083       .  S
C2598      H2608   1.082       .  S
C2609      C2610   1.406       .  A
C2609      C2614   1.405       .  A
C2610      C2611   1.400       .  A
C2610      H2623   1.083       .  S
C2611      C2612   1.405       .  A
C2611      H2624   1.084       .  S
C2612      C2613   1.410       .  A
C2612      C2615   1.494       .  S
C2613      C2614   1.399       .  A
C2613      H2625   1.079       .  S
C2614      H2626   1.084       .  S
C2615      C2616   1.350       .  D
C2615      H2627   1.084       .  S
C2616      C2617   1.493       .  S
C2616      H2628   1.084       .  S
C2617      C2618   1.404       .  A
C2617      C2622   1.410       .  A
C2618      C2619   1.397       .  A
C2618      H2629   1.084       .  S
C2619      C2620   1.405       .  A
C2619      H2630   1.083       .  S
C2620      C2621   1.406       .  A
C2621      C2622   1.402       .  A
C2621      H2631   1.083       .  S
C2622      H2632   1.080       .  S
C2633      C2634   1.405       .  A
C2633      C2638   1.406       .  A
C2634      C2635   1.397       .  A
C2634      H2647   1.083       .  S
C2635      C2636   1.404       .  A
C2635      H2648   1.084       .  S
C2636      C2637   1.410       .  A
C2636      C2639   1.493       .  S
C2637      C2638   1.401       .  A
C2637      H2649   1.080       .  S
C2638      H2650   1.083       .  S
C2639      C2640   1.349   1_655  D
C2639      H2651   1.085   1_655  S
C2640      C2641   1.491       .  S
C2640      H2652   1.083       .  S
C2641      C2642   1.404       .  A
C2641      C2646   1.409       .  A
C2642      C2643   1.399       .  A
C2642      H2653   1.084       .  S
C2643      C2644   1.406       .  A
C2643      H2654   1.083       .  S
C2644      C2645   1.406       .  A
C2645      C2646   1.399       .  A
C2645      H2655   1.083       .  S
C2646      H2656   1.081       .  S
C2657      C2658   1.406       .  A
C2657      C2662   1.406       .  A
C2658      C2659   1.395       .  A
C2658      H2671   1.083       .  S
C2659      C2660   1.401       .  A
C2659      H2672   1.084       .  S
C2660      C2661   1.409       .  A
C2660      C2663   1.485       .  S
C2661      C2662   1.404       .  A
C2661      H2673   1.082       .  S
C2662      H2674   1.083       .  S
C2663      C2664   1.347   1_565  D
C2663      H2675   1.085   1_565  S
C2664      C2665   1.489       .  S
C2664      H2676   1.086   1_545  S
C2665      C2666   1.404       .  A
C2665      C2670   1.407       .  A
C2666      C2667   1.401       .  A
C2666      H2677   1.083       .  S
C2667      C2668   1.407       .  A
C2667      H2678   1.083       .  S
C2668      C2669   1.407       .  A
C2669      C2670   1.397       .  A
C2669      H2679   1.083       .  S
C2670      H2680   1.082       .  S
C2681      C2682   1.406       .  A
C2681      C2686   1.406       .  A
C2682      C2683   1.401       .  A
C2682      H2695   1.083       .  S
C2683      C2684   1.405       .  A
C2683      H2696   1.083       .  S
C2684      C2685   1.410       .  A
C2684      C2687   1.495       .  S
C2685      C2686   1.401       .  A
C2685      H2697   1.080       .  S
C2686      H2698   1.083       .  S
C2687      C2688   1.350       .  D
C2687      H2699   1.085       .  S
C2688      C2689   1.492       .  S
C2688      H2700   1.084       .  S
C2689      C2690   1.403       .  A
C2689      C2694   1.410       .  A
C2690      C2691   1.397       .  A
C2690      H2701   1.084       .  S
C2691      C2692   1.406       .  A
C2691      H2702   1.083       .  S
C2692      C2693   1.407       .  A
C2693      C2694   1.404       .  A
C2693      H2703   1.083       .  S
C2694      H2704   1.081       .  S
C2705      C2706   1.407       .  A
C2705      C2710   1.405       .  A
C2706      C2707   1.401       .  A
C2706      H2719   1.083       .  S
C2707      C2708   1.404       .  A
C2707      H2720   1.083       .  S
C2708      C2709   1.409       .  A
C2708      C2711   1.491       .  S
C2709      C2710   1.397       .  A
C2709      H2721   1.081       .  S
C2710      H2722   1.083       .  S
C2711      C2712   1.348   1_655  D
C2711      H2723   1.085       .  S
C2712      C2713   1.488       .  S
C2712      H2724   1.084   1_455  S
C2713      C2714   1.402       .  A
C2713      C2718   1.409       .  A
C2714      C2715   1.395       .  A
C2714      H2725   1.084       .  S
C2715      C2716   1.406       .  A
C2715      H2726   1.083       .  S
C2716      C2717   1.407       .  A
C2717      C2718   1.403       .  A
C2717      H2727   1.083       .  S
C2718      H2728   1.081       .  S
C2729      C2730   1.405       .  A
C2729      C2734   1.408       .  A
C2730      C2731   1.401       .  A
C2730      H2743   1.083       .  S
C2731      C2732   1.404       .  A
C2731      H2744   1.083       .  S
C2732      C2733   1.404       .  A
C2732      C2735   1.483       .  S
C2733      C2734   1.396       .  A
C2733      H2745   1.083       .  S
C2734      H2746   1.083       .  S
C2735      C2736   1.347       .  D
C2735      H2747   1.086       .  S
C2736      C2737   1.482       .  S
C2736      H2748   1.086       .  S
C2737      C2738   1.402       .  A
C2737      C2742   1.406       .  A
C2738      C2739   1.398       .  A
C2738      H2749   1.083       .  S
C2739      C2740   1.406       .  A
C2739      H2750   1.083       .  S
C2740      C2741   1.406       .  A
C2741      C2742   1.398       .  A
C2741      H2751   1.083       .  S
C2742      H2752   1.083       .  S
C2753      C2754   1.407       .  A
C2753      C2758   1.405       .  A
C2754      C2755   1.399       .  A
C2754      H2767   1.083       .  S
C2755      C2756   1.403       .  A
C2755      H2768   1.083       .  S
C2756      C2757   1.408       .  A
C2756      C2759   1.486       .  S
C2757      C2758   1.396       .  A
C2757      H2769   1.081       .  S
C2758      H2770   1.083       .  S
C2759      C2760   1.345       .  D
C2759      H2771   1.086       .  S
C2760      C2761   1.482       .  S
C2760      H2772   1.086       .  S
C2761      C2762   1.400       .  A
C2761      C2766   1.409       .  A
C2762      C2763   1.392       .  A
C2762      H2773   1.084       .  S
C2763      C2764   1.406       .  A
C2763      H2774   1.083       .  S
C2764      C2765   1.405       .  A
C2765      C2766   1.403       .  A
C2765      H2775   1.083       .  S
C2766      H2776   1.082       .  S
C2777      C2778   1.407       .  A
C2777      C2782   1.406       .  A
C2778      C2779   1.398       .  A
C2778      H2791   1.083       .  S
C2779      C2780   1.402       .  A
C2779      H2792   1.084       .  S
C2780      C2781   1.409       .  A
C2780      C2783   1.489       .  S
C2781      C2782   1.403       .  A
C2781      H2793   1.082       .  S
C2782      H2794   1.083       .  S
C2783      C2784   1.348   1_564  D
C2783      H2795   1.085   1_565  S
C2784      C2785   1.492       .  S
C2784      H2796   1.086       .  S
C2785      C2786   1.405       .  A
C2785      C2790   1.409       .  A
C2786      C2787   1.400       .  A
C2786      H2797   1.083       .  S
C2787      C2788   1.405       .  A
C2787      H2798   1.083       .  S
C2788      C2789   1.407       .  A
C2789      C2790   1.401       .  A
C2789      H2799   1.083       .  S
C2790      H2800   1.081   1_556  S
C2801      C2802   1.407       .  A
C2801      C2806   1.405       .  A
C2802      C2803   1.399       .  A
C2802      H2815   1.083       .  S
C2803      C2804   1.404       .  A
C2803      H2816   1.084       .  S
C2804      C2805   1.409       .  A
C2804      C2807   1.491       .  S
C2805      C2806   1.399       .  A
C2805      H2817   1.081       .  S
C2806      H2818   1.083       .  S
C2807      C2808   1.348       .  D
C2807      H2819   1.085       .  S
C2808      C2809   1.488       .  S
C2808      H2820   1.084       .  S
C2809      C2810   1.403       .  A
C2809      C2814   1.409       .  A
C2810      C2811   1.397       .  A
C2810      H2821   1.084       .  S
C2811      C2812   1.405       .  A
C2811      H2822   1.083       .  S
C2812      C2813   1.407       .  A
C2813      C2814   1.401       .  A
C2813      H2823   1.083       .  S
C2814      H2824   1.081       .  S
C2825      C2826   1.407       .  A
C2825      C2830   1.405       .  A
C2826      C2827   1.397       .  A
C2826      H2839   1.083       .  S
C2827      C2828   1.403       .  A
C2827      H2840   1.084       .  S
C2828      C2829   1.410       .  A
C2828      C2831   1.489       .  S
C2829      C2830   1.399       .  A
C2829      H2841   1.080       .  S
C2830      H2842   1.083       .  S
C2831      C2832   1.347       .  D
C2831      H2843   1.085       .  S
C2832      C2833   1.485       .  S
C2832      H2844   1.084       .  S
C2833      C2834   1.402       .  A
C2833      C2838   1.408       .  A
C2834      C2835   1.397       .  A
C2834      H2845   1.083       .  S
C2835      C2836   1.405       .  A
C2835      H2846   1.083       .  S
C2836      C2837   1.407       .  A
C2837      C2838   1.399       .  A
C2837      H2847   1.083       .  S
C2838      H2848   1.082       .  S
C2849      C2850   1.406       .  A
C2849      C2854   1.407       .  A
C2850      C2851   1.402       .  A
C2850      H2863   1.083       .  S
C2851      C2852   1.405       .  A
C2851      H2864   1.083       .  S
C2852      C2853   1.407       .  A
C2852      C2855   1.491       .  S
C2853      C2854   1.398       .  A
C2853      H2865   1.081       .  S
C2854      H2866   1.083       .  S
C2855      C2856   1.349   1_565  D
C2855      H2867   1.086   1_565  S
C2856      C2857   1.487       .  S
C2856      H2868   1.085       .  S
C2857      C2858   1.403       .  A
C2857      C2862   1.408       .  A
C2858      C2859   1.397       .  A
C2858      H2869   1.084       .  S
C2859      C2860   1.406       .  A
C2859      H2870   1.083       .  S
C2860      C2861   1.406       .  A
C2861      C2862   1.402       .  A
C2861      H2871   1.083       .  S
C2862      H2872   1.082       .  S
C2873      C2874   1.406       .  A
C2873      C2878   1.405       .  A
C2874      C2875   1.396       .  A
C2874      H2887   1.083       .  S
C2875      C2876   1.401       .  A
C2875      H2888   1.083       .  S
C2876      C2877   1.409       .  A
C2876      C2879   1.485       .  S
C2877      C2878   1.400       .  A
C2877      H2889   1.082       .  S
C2878      H2890   1.083       .  S
C2879      C2880   1.344       .  D
C2879      H2891   1.086       .  S
C2880      C2881   1.484       .  S
C2880      H2892   1.086       .  S
C2881      C2882   1.400       .  A
C2881      C2886   1.409       .  A
C2882      C2883   1.394       .  A
C2882      H2893   1.083       .  S
C2883      C2884   1.407       .  A
C2883      H2894   1.083       .  S
C2884      C2885   1.406       .  A
C2885      C2886   1.402       .  A
C2885      H2895   1.083       .  S
C2886      H2896   1.082       .  S
C2897      C2898   1.407       .  A
C2897      C2902   1.407       .  A
C2898      C2899   1.398       .  A
C2898      H2911   1.083       .  S
C2899      C2900   1.403       .  A
C2899      H2912   1.084       .  S
C2900      C2901   1.410       .  A
C2900      C2903   1.493       .  S
C2901      C2902   1.403       .  A
C2901      H2913   1.081       .  S
C2902      H2914   1.083       .  S
C2903      C2904   1.350       .  D
C2903      H2915   1.085       .  S
C2904      C2905   1.494       .  S
C2904      H2916   1.086       .  S
C2905      C2906   1.404       .  A
C2905      C2910   1.410       .  A
C2906      C2907   1.399       .  A
C2906      H2917   1.084       .  S
C2907      C2908   1.406       .  A
C2907      H2918   1.082       .  S
C2908      C2909   1.408       .  A
C2909      C2910   1.403       .  A
C2909      H2919   1.084       .  S
C2910      H2920   1.080       .  S
C2921      C2922   1.407       .  A
C2921      C2926   1.404       .  A
C2922      C2923   1.400       .  A
C2922      H2935   1.083       .  S
C2923      C2924   1.405       .  A
C2923      H2936   1.083       .  S
C2924      C2925   1.410       .  A
C2924      C2927   1.493       .  S
C2925      C2926   1.398       .  A
C2925      H2937   1.080       .  S
C2926      H2938   1.083       .  S
C2927      C2928   1.349       .  D
C2927      H2939   1.085       .  S
C2928      C2929   1.487       .  S
C2928      H2940   1.083       .  S
C2929      C2930   1.402       .  A
C2929      C2934   1.408       .  A
C2930      C2931   1.396       .  A
C2930      H2941   1.084       .  S
C2931      C2932   1.406       .  A
C2931      H2942   1.083       .  S
C2932      C2933   1.408       .  A
C2933      C2934   1.403       .  A
C2933      H2943   1.083       .  S
C2934      H2944   1.082       .  S
C2945      C2946   1.406       .  A
C2945      C2950   1.405       .  A
C2946      C2947   1.399       .  A
C2946      H2959   1.083       .  S
C2947      C2948   1.403       .  A
C2947      H2960   1.083       .  S
C2948      C2949   1.405       .  A
C2948      C2951   1.481       .  S
C2949      C2950   1.395       .  A
C2949      H2961   1.082       .  S
C2950      H2962   1.083       .  S
C2951      C2952   1.346       .  D
C2951      H2963   1.086       .  S
C2952      C2953   1.481       .  S
C2952      H2964   1.086       .  S
C2953      C2954   1.403       .  A
C2953      C2958   1.406       .  A
C2954      C2955   1.399   1_556  A
C2954      H2965   1.083       .  S
C2955      C2956   1.405       .  A
C2955      H2966   1.083       .  S
C2956      C2957   1.405       .  A
C2957      C2958   1.395   1_554  A
C2957      H2967   1.083       .  S
C2958      H2968   1.082       .  S
C2969      C2970   1.406       .  A
C2969      C2974   1.406       .  A
C2970      C2971   1.394       .  A
C2970      H2983   1.083       .  S
C2971      C2972   1.400       .  A
C2971      H2984   1.084       .  S
C2972      C2973   1.410       .  A
C2972      C2975   1.485       .  S
C2973      C2974   1.404       .  A
C2973      H2985   1.082       .  S
C2974      H2986   1.083       .  S
C2975      C2976   1.345       .  D
C2975      H2987   1.086       .  S
C2976      C2977   1.487       .  S
C2976      H2988   1.086       .  S
C2977      C2978   1.402       .  A
C2977      C2982   1.408       .  A
C2978      C2979   1.398       .  A
C2978      H2989   1.083       .  S
C2979      C2980   1.406       .  A
C2979      H2990   1.083       .  S
C2980      C2981   1.406       .  A
C2981      C2982   1.399       .  A
C2981      H2991   1.083       .  S
C2982      H2992   1.082       .  S
C2993      C2994   1.406       .  A
C2993      C2998   1.408       .  A
C2994      C2995   1.401       .  A
C2994      H3007   1.083       .  S
C2995      C2996   1.405       .  A
C2995      H3008   1.083       .  S
C2996      C2997   1.407       .  A
C2996      C2999   1.491       .  S
C2997      C2998   1.400       .  A
C2997      H3009   1.082       .  S
C2998      H3010   1.083       .  S
C2999      C3000   1.348   1_565  D
C2999      H3011   1.086   1_565  S
C3000      C3001   1.488       .  S
C3000      H3012   1.086   1_545  S
C3001      C3002   1.402       .  A
C3001      C3006   1.408       .  A
C3002      C3003   1.398       .  A
C3002      H3013   1.084       .  S
C3003      C3004   1.406       .  A
C3003      H3014   1.083       .  S
C3004      C3005   1.407       .  A
C3005      C3006   1.403       .  A
C3005      H3015   1.083       .  S
C3006      H3016   1.082       .  S
C3017      C3018   1.405       .  A
C3017      C3022   1.407       .  A
C3018      C3019   1.400       .  A
C3018      H3031   1.083       .  S
C3019      C3020   1.404       .  A
C3019      H3032   1.083       .  S
C3020      C3021   1.405       .  A
C3020      C3023   1.484       .  S
C3021      C3022   1.396       .  A
C3021      H3033   1.082       .  S
C3022      H3034   1.083       .  S
C3023      C3024   1.348       .  D
C3023      H3035   1.086       .  S
C3024      C3025   1.484       .  S
C3024      H3036   1.086       .  S
C3025      C3026   1.404       .  A
C3025      C3030   1.405       .  A
C3026      C3027   1.400       .  A
C3026      H3037   1.083       .  S
C3027      C3028   1.406       .  A
C3027      H3038   1.083       .  S
C3028      C3029   1.408       .  A
C3029      C3030   1.397       .  A
C3029      H3039   1.083       .  S
C3030      H3040   1.082       .  S
